139

C           -4.38843    0.28753     -0.15745    
C           -5.16425    1.18807     -0.83697    
S           -5.39159    -0.90431    0.70112     
C           -11.2748    1.08284     -0.78253    
C           -10.65173   0.06915     -0.01983    
C           -11.40998   -0.87407    0.68602     
C           -12.79499   -0.78844    0.61763     
C           -13.41791   0.22508     -0.14487    
C           -12.65962   1.16857     -0.85073    
C           -13.83443   -1.68653    1.28819     
C           -15.13787   -1.04884    0.80611     
C           -14.86872   0.0688      -0.03226    
C           -10.23493   1.9804      -1.45345    
C           -8.93156    1.34124     -0.97275    
C           -9.20069    0.22432     -0.13325    
C           -16.43444   -1.42841    1.08643     
C           -17.49926   -0.68756    0.52516     
C           -17.20818   0.42672     -0.3055     
C           -15.89858   0.81693     -0.59682    
C           -7.63496    1.71872     -1.25487    
C           -6.57063    0.97775     -0.69263    
C           -6.86045    -0.13422    0.14223     
C           -8.17167    -0.52409    0.43074     
C           -13.71081   -3.14873    0.80341     
C           -13.71644   -1.63035    2.82803     
C           -10.35483   1.9255      -2.99313    
C           -10.35714   3.44227     -0.96739    
H           -13.14524   1.9464      -1.43589    
H           -10.92421   -1.65181    1.27108     
H           -7.41686    2.57245     -1.89217    
H           -8.3756     -1.3782     1.07036     
H           -16.65274   -2.28202    1.72373     
H           -15.69503   1.67112     -1.2363     
H           -13.45929   -3.46327    1.81627     
H           -13.96234   -2.83418    -0.20946    
C           -13.58852   -4.59538    0.32377     
H           -12.64301   -1.46283    2.73966     
H           -14.78985   -1.79785    2.91639     
C           -13.59969   -1.57475    4.35155     
H           -9.28363    3.57627     -1.10048    
H           -11.43066   3.30827     -0.83431    
C           -10.47806   4.88863     -0.48649    
H           -10.10148   0.86551     -2.97507    
H           -10.60817   2.9855      -3.0112     
C           -10.47346   1.87119     -4.51655    
H           -19.32362   -1.71393    1.25217     
H           -4.74859    2.00069     -1.41628    
S           -18.68146   1.1787      -0.88273    
C           -18.90582   -0.90178    0.67418     
C           -19.68612   0.0         0.0         
C           0.0         0.0         0.0         
C           -0.65824    1.24734     -0.00337    
C           -0.85766    -1.12168    -0.02461    
C           -0.10027    2.63064     0.13101     
N           -1.20251    3.48687     0.19895     
C           -2.41429    2.81081     0.08459     
C           -1.10603    4.92914     0.33189     
O           -3.49476    3.36898     0.09767     
O           1.05375     3.01618     0.17806     
F           -2.94246    -2.13537    -0.09364    
H           -0.45455    -2.12783    -0.04953    
H           -2.18077    4.98511     0.50476     
H           -0.03128    4.87318     0.15903     
C           -1.00439    6.44832     0.47192     
C           -2.23035    -0.99261    -0.05995    
C           -2.06422    1.35221     -0.03962    
C           -2.9239     0.2389      -0.08219    
C           -13.46621   -6.04205    -0.15586    
C           -13.34392   -7.48871    -0.63549    
C           -13.22161   -8.93538    -1.11512    
C           -13.09931   -10.38204   -1.59475    
C           -12.97701   -11.8287    -2.07439    
C           -12.85471   -13.27537   -2.55403    
C           -12.73241   -14.72203   -3.03366    
C           -12.61011   -16.16869   -3.51329    
C           -12.48781   -17.61536   -3.99292    
C           -12.36551   -19.06203   -4.47256    
C           -12.2432    -20.50868   -4.95219    
C           -12.12091   -21.95535   -5.43182    
C           -11.9986    -23.40202   -5.91145    
C           -11.87631   -24.84867   -6.39108    
C           -10.59209   1.81687     -6.03997    
C           -10.71073   1.76254     -7.56339    
C           -10.82936   1.70823     -9.08682    
C           -10.948     1.65391     -10.61024   
C           -11.06663   1.5996      -12.13366   
C           -11.18526   1.54528     -13.65708   
C           -11.3039    1.49096     -15.18051   
C           -11.42253   1.43665     -16.70393   
C           -11.54117   1.38232     -18.22735   
C           -11.6598    1.328       -19.75078   
C           -11.77844   1.27369     -21.27419   
C           -11.89707   1.21937     -22.79762   
C           -12.01571   1.16505     -24.32105   
C           -12.13434   1.11074     -25.84446   
C           -13.48295   -1.51916    5.87508     
C           -13.36622   -1.46357    7.3986      
C           -13.24947   -1.40798    8.92212     
C           -13.13274   -1.35239    10.44565    
C           -13.01599   -1.2968     11.96917    
C           -12.89925   -1.24121    13.49269    
C           -12.78251   -1.18561    15.01621    
C           -12.66577   -1.13002    16.53974    
C           -12.54904   -1.07443    18.06326    
C           -12.43229   -1.01883    19.58678    
C           -12.31555   -0.96324    21.11031    
C           -12.19881   -0.90765    22.63383    
C           -12.08207   -0.85206    24.15735    
C           -11.96532   -0.79647    25.68087    
C           -10.59898   6.335       -0.00559    
C           -10.7199    7.78135     0.47531     
C           -10.84082   9.22771     0.95621     
C           -10.96174   10.67407    1.43711     
C           -11.08266   12.12043    1.918       
C           -11.20358   13.56679    2.3989      
C           -11.3245    15.01315    2.8798      
C           -11.44542   16.4595     3.3607      
C           -11.56634   17.90586    3.8416      
C           -11.68726   19.35223    4.32251     
C           -11.80818   20.79858    4.80341     
C           -11.9291    22.24494    5.28431     
C           -12.05002   23.6913     5.76521     
C           -12.17094   25.13766    6.24611     
C           -0.90276    7.9675      0.61195     
C           -0.80112    9.48668     0.75198     
C           -0.69949    11.00586    0.892       
C           -0.59786    12.52504    1.03203     
C           -0.49622    14.04422    1.17206     
C           -0.39459    15.5634     1.31209     
C           -0.29296    17.08257    1.45211     
C           -0.19132    18.60175    1.59214     
C           -0.08969    20.12093    1.73217     
C           0.01195     21.64011    1.8722      
C           0.11358     23.15929    2.01222     
C           0.21521     24.67847    2.15225     
C           0.31685     26.19765    2.29228     
C           0.41848     27.71683    2.43231     
H           -20.77612   0.0         0.0         
H           1.09        0.0         0.0         
