95

C           -17.52398   0.48676     0.00218     
C           -18.20717   1.68569     0.00766     
O           -18.43049   -0.54754    -0.00252    
H           -17.75921   2.66935     0.01213     
H           -20.4202    2.06414     0.00943     
C           -19.58831   1.37523     0.00627     
C           -19.67902   0.0         0.0         
C           -6.80145    -1.52059    -0.00721    
C           -7.86531    -2.3899     -0.01128    
S           -7.28987    0.18528     0.00072     
C           -8.97421    -0.29607    -0.00153    
C           -9.12719    -1.72621    -0.0082     
C           -10.43035   -2.26589    -0.01072    
C           -11.55429   -1.40123    -0.00669    
C           -11.38316   0.02413     -3e-05      
C           -10.06655   0.55921     0.00246     
C           -12.87006   -1.93858    -0.0092     
C           -13.96189   -1.08139    -0.00519    
C           -13.80887   0.34938     0.00149     
C           -12.50573   0.89082     0.00403     
C           -12.31013   2.35887     0.0109      
N           -10.98189   2.82476     0.01299     
C           -9.85174    2.01455     0.00923     
C           -10.63068   -3.73061    -0.01755    
N           -11.95344   -4.2014     -0.01972    
C           -13.0903    -3.39537    -0.016      
O           -13.23611   3.16367     0.01455     
O           -8.72817    2.51386     0.01153     
O           -9.71613    -4.54923    -0.02122    
O           -14.22034   -3.87941    -0.0181     
H           -15.16403   2.08719     0.00966     
H           -7.77513    -3.46543    -0.01628    
C           -10.74181   4.2725      0.01966     
C           -12.12352   -5.6588     -0.02641    
H           -10.55665   4.23684     1.09323     
C           -10.49166   5.78088     0.02662     
H           -10.92697   4.30815     -1.0539     
H           -11.88693   -5.69129    1.03711     
H           -12.3601    -5.62631    -1.08993    
C           -12.30075   -7.17748    -0.03338    
S           -15.64656   -1.56216    -0.00744    
C           -15.07204   1.01209     0.00461     
C           -16.13504   0.14284     0.00055     
C           -3.25723    -1.37949    -0.0065     
C           -3.35059    -2.75645    -0.01296    
O           -4.50609    -0.83074    -0.00395    
H           -2.51992    -3.44676    -0.01619    
H           -5.18014    -4.04756    -0.01899    
C           -4.73074    -3.06452    -0.01439    
C           -5.4135     -1.86431    -0.0088     
C           0.0         0.0         0.0         
C           -0.66743    1.20268     0.00567     
O           -0.89751    -1.03288    -0.00487    
H           -0.20866    2.18051     0.0103      
H           -2.88229    1.58956     0.00747     
C           -2.05353    0.8964      0.0042      
C           -2.15138    -0.47569    -0.00225    
C           -10.24152   7.28926     0.03358     
C           -9.99138    8.79765     0.04052     
C           -9.74123    10.30603    0.04748     
C           -9.49109    11.81441    0.05443     
C           -9.24095    13.3228     0.06139     
C           -8.9908     14.83118    0.06835     
C           -8.74066    16.33956    0.0753      
C           -8.49052    17.84795    0.08225     
C           -8.24038    19.35633    0.0892      
C           -7.99023    20.86471    0.09616     
C           -10.23193   5.73086     1.53257     
C           -9.9722     5.68084     3.03851     
C           -9.71247    5.63083     4.54446     
C           -9.45274    5.58081     6.05041     
C           -9.193      5.5308      7.55635     
C           -8.93327    5.48078     9.0623      
C           -8.67354    5.43077     10.56825    
C           -8.41382    5.38075     12.07421    
C           -12.47798   -8.69616    -0.04035    
C           -12.65521   -10.21484   -0.04732    
C           -12.83244   -11.73351   -0.05429    
C           -13.00966   -13.25219   -0.06127    
C           -13.18689   -14.77087   -0.06824    
C           -13.36412   -16.28955   -0.07521    
C           -13.54135   -17.80823   -0.08218    
C           -13.71858   -19.3269    -0.08915    
C           -13.89581   -20.84558   -0.09612    
C           -14.07304   -22.36426   -0.10309    
C           -12.63262   -7.1319     -1.52523    
C           -12.96449   -7.08633    -3.01709    
C           -13.29636   -7.04075    -4.50894    
C           -13.62823   -6.99517    -6.00079    
C           -13.9601    -6.94959    -7.49265    
C           -14.29197   -6.90402    -8.9845     
C           -14.62384   -6.85844    -10.47635   
C           -14.95571   -6.81286    -11.9682    
H           -20.76902   0.0         0.0         
H           1.09        0.0         0.0         
