76

C           -10.59168   0.69021     0.00425     
C           -11.28618   -0.51703    0.00417     
S           -11.70948   2.07967     0.00794     
C           -12.67757   -0.32228    0.00868     
C           -13.0837    1.01508     0.01107     
H           -14.97999   2.16638     -0.01703    
H           -10.77441   -1.47528    0.00166     
S           -14.06248   -1.38685    0.01654     
C           -14.48412   1.20278     0.00388     
C           -15.16748   0.0         -0.0        
C           -6.00658    -0.79362    -0.00218    
C           -6.92457    0.26166     -0.00067    
N           -6.7533     -1.97156    -0.00131    
C           -8.16184    -1.70352    0.0004      
C           -7.00565    1.70355     -4e-05      
O           -6.16056    2.59757     -0.0005     
O           -9.00693    -2.59754    0.00078     
C           -8.87869    3.34746     0.00254     
C           -6.28881    -3.34745    -0.00233    
C           -5.79974    -4.79612    -0.0034     
H           -6.60287    -3.45424    1.03597     
H           -5.97475    -3.24065    -1.04063    
H           -8.56461    3.45423     -1.03576    
C           -9.36775    4.79614     0.00356     
H           -9.19276    3.2407      1.04083     
N           -8.41419    1.97157     0.00156     
C           -8.24291    -0.26165    0.00099     
C           -9.16092    0.79363     0.00244     
C           0.0         0.0         0.0         
C           -0.68338    -1.20278    -0.00393    
S           -1.10501    1.38685     -0.0164     
C           -2.08379    -1.01507    -0.01103    
C           -2.48992    0.3223      -0.00854    
H           -4.39308    1.4753      -0.00135    
H           -0.18751    -2.16638    0.0169      
S           -3.458      -2.07964    -0.00789    
C           -3.88131    0.51706     -0.00394    
C           -4.57581    -0.69018    -0.00405    
C           -5.31068    -6.24479    -0.00446    
C           -4.82161    -7.69347    -0.00553    
C           -4.33256    -9.14214    -0.0066     
C           -3.84349    -10.59082   -0.00766    
C           -3.35443    -12.03949   -0.00873    
C           -2.86536    -13.48816   -0.00981    
C           -2.3763     -14.93684   -0.01087    
C           -1.88724    -16.38552   -0.01194    
C           -1.39818    -17.83419   -0.01301    
C           -0.90911    -19.28286   -0.01408    
C           -6.24029    -4.94592    1.45308     
C           -6.68085    -5.09572    2.90955     
C           -7.12139    -5.24552    4.36603     
C           -7.56195    -5.39532    5.8225      
C           -8.0025     -5.54512    7.27897     
C           -8.44305    -5.69492    8.73545     
C           -8.88361    -5.84472    10.19192    
C           -9.32415    -5.99452    11.64839    
C           -9.85681    6.24481     0.00459     
C           -10.34587   7.69349     0.00561     
C           -10.83493   9.14216     0.00664     
C           -11.32399   10.59084    0.00766     
C           -11.81306   12.03951    0.00869     
C           -12.30212   13.48819    0.00972     
C           -12.79118   14.93686    0.01074     
C           -13.28024   16.38554    0.01177     
C           -13.7693    17.83421    0.01279     
C           -14.25837   19.28289    0.01382     
C           -8.92717    4.9459      -1.45291    
C           -8.4866     5.09567     -2.90938    
C           -8.04602    5.24544     -4.36585    
C           -7.60545    5.3952      -5.82232    
C           -7.16487    5.54497     -7.27879    
C           -6.7243     5.69473     -8.73526    
C           -6.28372    5.8445      -10.19173   
C           -5.84314    5.99427     -11.6482    
H           -16.25748   0.0         -0.0        
H           1.09        0.0         0.0         
