742

C           -160.08825  0.69021     0.00425     
C           -160.78274  -0.51703    0.00417     
S           -161.20605  2.07967     0.00794     
C           -162.17414  -0.32228    0.00868     
C           -162.58026  1.01508     0.01107     
H           -164.47655  2.16638     -0.01703    
H           -160.27097  -1.47528    0.00166     
S           -163.55905  -1.38685    0.01654     
C           -163.98069  1.20278     0.00388     
C           -164.66405  0.0         -0.0        
C           -155.50314  -0.79362    -0.00218    
C           -156.42114  0.26166     -0.00067    
N           -156.24986  -1.97156    -0.00131    
C           -157.65841  -1.70352    0.0004      
C           -156.50221  1.70355     -4e-05      
O           -155.65713  2.59757     -0.0005     
O           -158.5035   -2.59754    0.00078     
C           -158.37525  3.34746     0.00254     
C           -155.78537  -3.34745    -0.00233    
C           -155.29631  -4.79612    -0.0034     
H           -156.09943  -3.45424    1.03597     
H           -155.47131  -3.24065    -1.04063    
H           -158.06117  3.45423     -1.03576    
C           -158.86431  4.79614     0.00356     
H           -158.68933  3.2407      1.04083     
N           -157.91076  1.97157     0.00156     
C           -157.73947  -0.26165    0.00099     
C           -158.65749  0.79363     0.00244     
C           -149.49657  0.0         -0.0        
C           -150.17994  -1.20278    -0.00393    
S           -150.60157  1.38685     -0.0164     
C           -151.58036  -1.01507    -0.01103    
C           -151.98649  0.3223      -0.00854    
H           -153.88964  1.4753      -0.00135    
H           -149.68407  -2.16638    0.0169      
S           -152.95457  -2.07964    -0.00789    
C           -153.37788  0.51706     -0.00394    
C           -154.07237  -0.69018    -0.00405    
C           -154.80724  -6.24479    -0.00446    
C           -154.31818  -7.69347    -0.00553    
C           -153.82912  -9.14214    -0.0066     
C           -153.34006  -10.59082   -0.00766    
C           -152.85099  -12.03949   -0.00873    
C           -152.36193  -13.48816   -0.00981    
C           -151.87286  -14.93684   -0.01087    
C           -151.38381  -16.38552   -0.01194    
C           -150.89474  -17.83419   -0.01301    
C           -150.40568  -19.28286   -0.01408    
C           -155.73686  -4.94592    1.45308     
C           -156.17741  -5.09572    2.90955     
C           -156.61796  -5.24552    4.36603     
C           -157.05851  -5.39532    5.8225      
C           -157.49907  -5.54512    7.27897     
C           -157.93962  -5.69492    8.73545     
C           -158.38017  -5.84472    10.19192    
C           -158.82072  -5.99452    11.64839    
C           -159.35337  6.24481     0.00459     
C           -159.84244  7.69349     0.00561     
C           -160.3315   9.14216     0.00664     
C           -160.82056  10.59084    0.00766     
C           -161.30962  12.03951    0.00869     
C           -161.79868  13.48819    0.00972     
C           -162.28775  14.93686    0.01074     
C           -162.77681  16.38554    0.01177     
C           -163.26587  17.83421    0.01279     
C           -163.75493  19.28289    0.01382     
C           -158.42374  4.9459      -1.45291    
C           -157.98316  5.09567     -2.90938    
C           -157.54259  5.24544     -4.36585    
C           -157.10201  5.3952      -5.82232    
C           -156.66144  5.54497     -7.27879    
C           -156.22086  5.69473     -8.73526    
C           -155.78029  5.8445      -10.19173   
C           -155.33971  5.99427     -11.6482    
C           -143.47752  0.69021     0.00459     
C           -144.17201  -0.51703    0.00391     
S           -144.59532  2.07966     0.00898     
C           -145.56341  -0.32229    0.00852     
C           -145.96953  1.01508     0.01158     
H           -147.86582  2.16639     -0.01595    
H           -143.66024  -1.47528    0.00092     
S           -146.94832  -1.38685    0.01585     
C           -147.36996  1.20278     0.00449     
C           -148.05332  0.0         -0.0        
C           -138.89241  -0.79362    -0.00258    
C           -139.81041  0.26166     -0.00054    
N           -139.63913  -1.97155    -0.0023     
C           -141.04768  -1.70352    -0.00046    
C           -139.89148  1.70355     0.00082     
O           -139.0464   2.59757     0.0008      
O           -141.89277  -2.59754    -0.00052    
C           -141.76452  3.34746     0.00422     
C           -139.17464  -3.34744    -0.00401    
C           -138.68558  -4.79612    -0.0058     
H           -139.4887   -3.45476    1.03424     
H           -138.86058  -3.24013    -1.04225    
H           -141.45044  3.45475     -1.03403    
C           -142.25358  4.79614     0.00597     
H           -142.0786   3.24017     1.04246     
N           -141.30003  1.97157     0.00255     
C           -141.12874  -0.26165    0.00086     
C           -142.04676  0.79363     0.00284     
C           -132.88584  0.0         -0.0        
C           -133.56921  -1.20278    -0.00453    
S           -133.99084  1.38686     -0.0157     
C           -134.96963  -1.01506    -0.01154    
C           -135.37576  0.3223      -0.00837    
H           -137.27891  1.4753      -0.00061    
H           -133.07334  -2.16638    0.01582     
S           -136.34384  -2.07964    -0.00893    
C           -136.76715  0.51706     -0.00368    
C           -137.46164  -0.69018    -0.00439    
C           -138.19651  -6.24479    -0.00759    
C           -137.70745  -7.69346    -0.00939    
C           -137.21839  -9.14214    -0.01118    
C           -136.72933  -10.59081   -0.01298    
C           -136.24026  -12.03949   -0.01477    
C           -135.7512   -13.48816   -0.01657    
C           -135.26213  -14.93683   -0.01836    
C           -134.77308  -16.38551   -0.02016    
C           -134.28401  -17.83418   -0.02195    
C           -133.79495  -19.28285   -0.02375    
C           -139.12613  -4.94665    1.4506      
C           -139.56668  -5.09718    2.907       
C           -140.00723  -5.24771    4.3634      
C           -140.44778  -5.39824    5.81979     
C           -140.88834  -5.54877    7.27619     
C           -141.32889  -5.6993     8.73259     
C           -141.76944  -5.84983    10.18899    
C           -142.20999  -6.00036    11.64539    
C           -142.74265  6.24481     0.00772     
C           -143.23171  7.69348     0.00947     
C           -143.72077  9.14216     0.01122     
C           -144.20983  10.59083    0.01298     
C           -144.69889  12.03951    0.01473     
C           -145.18795  13.48818    0.01648     
C           -145.67702  14.93685    0.01823     
C           -146.16608  16.38553    0.01998     
C           -146.65514  17.8342     0.02173     
C           -147.1442   19.28288    0.02349     
C           -141.81301  4.94663     -1.45043    
C           -141.37243  5.09713     -2.90682    
C           -140.93186  5.24762     -4.36322    
C           -140.49128  5.39812     -5.81961    
C           -140.05071  5.54862     -7.27601    
C           -139.61013  5.69911     -8.7324     
C           -139.16956  5.84961     -10.18879   
C           -138.72898  6.00011     -11.64519   
C           -126.86679  0.69021     0.00459     
C           -127.56128  -0.51703    0.00391     
S           -127.98459  2.07966     0.00898     
C           -128.95268  -0.32229    0.00852     
C           -129.3588   1.01508     0.01158     
H           -131.25509  2.16639     -0.01595    
H           -127.04951  -1.47528    0.00092     
S           -130.33759  -1.38685    0.01585     
C           -130.75923  1.20278     0.00449     
C           -131.44259  0.0         -0.0        
C           -122.28168  -0.79362    -0.00258    
C           -123.19968  0.26166     -0.00054    
N           -123.02841  -1.97155    -0.0023     
C           -124.43695  -1.70352    -0.00046    
C           -123.28075  1.70355     0.00082     
O           -122.43567  2.59757     0.0008      
O           -125.28204  -2.59754    -0.00052    
C           -125.15379  3.34746     0.00422     
C           -122.56391  -3.34744    -0.00401    
C           -122.07485  -4.79612    -0.0058     
H           -122.87797  -3.45476    1.03424     
H           -122.24985  -3.24013    -1.04225    
H           -124.83971  3.45475     -1.03403    
C           -125.64285  4.79614     0.00597     
H           -125.46787  3.24017     1.04246     
N           -124.6893   1.97157     0.00255     
C           -124.51801  -0.26165    0.00086     
C           -125.43603  0.79363     0.00284     
C           -116.27511  0.0         -0.0        
C           -116.95848  -1.20278    -0.00453    
S           -117.38011  1.38686     -0.0157     
C           -118.3589   -1.01506    -0.01154    
C           -118.76503  0.3223      -0.00837    
H           -120.66819  1.4753      -0.00061    
H           -116.46261  -2.16638    0.01582     
S           -119.73311  -2.07964    -0.00893    
C           -120.15642  0.51706     -0.00368    
C           -120.85091  -0.69018    -0.00439    
C           -121.58578  -6.24479    -0.00759    
C           -121.09672  -7.69346    -0.00939    
C           -120.60766  -9.14214    -0.01118    
C           -120.1186   -10.59081   -0.01298    
C           -119.62954  -12.03949   -0.01477    
C           -119.14047  -13.48816   -0.01657    
C           -118.6514   -14.93683   -0.01836    
C           -118.16235  -16.38551   -0.02016    
C           -117.67328  -17.83418   -0.02195    
C           -117.18422  -19.28285   -0.02375    
C           -122.5154   -4.94665    1.4506      
C           -122.95596  -5.09718    2.907       
C           -123.3965   -5.24771    4.3634      
C           -123.83705  -5.39824    5.81979     
C           -124.27761  -5.54877    7.27619     
C           -124.71816  -5.6993     8.73259     
C           -125.15871  -5.84983    10.18899    
C           -125.59926  -6.00036    11.64539    
C           -126.13192  6.24481     0.00772     
C           -126.62098  7.69348     0.00947     
C           -127.11004  9.14216     0.01122     
C           -127.5991   10.59083    0.01298     
C           -128.08816  12.03951    0.01473     
C           -128.57723  13.48818    0.01648     
C           -129.06629  14.93685    0.01823     
C           -129.55535  16.38553    0.01998     
C           -130.04441  17.8342     0.02173     
C           -130.53347  19.28288    0.02349     
C           -125.20228  4.94663     -1.45043    
C           -124.7617   5.09713     -2.90682    
C           -124.32113  5.24762     -4.36322    
C           -123.88055  5.39812     -5.81961    
C           -123.43998  5.54862     -7.27601    
C           -122.9994   5.69911     -8.7324     
C           -122.55883  5.84961     -10.18879   
C           -122.11825  6.00011     -11.64519   
C           -110.25606  0.69021     0.00459     
C           -110.95056  -0.51703    0.00391     
S           -111.37386  2.07966     0.00898     
C           -112.34195  -0.32229    0.00852     
C           -112.74807  1.01508     0.01158     
H           -114.64436  2.16639     -0.01595    
H           -110.43878  -1.47528    0.00092     
S           -113.72686  -1.38685    0.01585     
C           -114.1485   1.20278     0.00449     
C           -114.83186  0.0         -0.0        
C           -105.67095  -0.79362    -0.00258    
C           -106.58895  0.26166     -0.00054    
N           -106.41768  -1.97155    -0.0023     
C           -107.82622  -1.70352    -0.00046    
C           -106.67002  1.70355     0.00082     
O           -105.82494  2.59757     0.0008      
O           -108.67131  -2.59754    -0.00052    
C           -108.54306  3.34746     0.00422     
C           -105.95318  -3.34744    -0.00401    
C           -105.46412  -4.79612    -0.0058     
H           -106.26724  -3.45476    1.03424     
H           -105.63912  -3.24013    -1.04225    
H           -108.22898  3.45475     -1.03403    
C           -109.03212  4.79614     0.00597     
H           -108.85714  3.24017     1.04246     
N           -108.07857  1.97157     0.00255     
C           -107.90728  -0.26165    0.00086     
C           -108.8253   0.79363     0.00284     
C           -99.66438   0.0         -0.0        
C           -100.34776  -1.20278    -0.00453    
S           -100.76938  1.38686     -0.0157     
C           -101.74817  -1.01506    -0.01154    
C           -102.1543   0.3223      -0.00837    
H           -104.05746  1.4753      -0.00061    
H           -99.85189   -2.16638    0.01582     
S           -103.12238  -2.07964    -0.00893    
C           -103.54569  0.51706     -0.00368    
C           -104.24019  -0.69018    -0.00439    
C           -104.97505  -6.24479    -0.00759    
C           -104.48599  -7.69346    -0.00939    
C           -103.99693  -9.14214    -0.01118    
C           -103.50787  -10.59081   -0.01298    
C           -103.01881  -12.03949   -0.01477    
C           -102.52974  -13.48816   -0.01657    
C           -102.04067  -14.93683   -0.01836    
C           -101.55162  -16.38551   -0.02016    
C           -101.06255  -17.83418   -0.02195    
C           -100.57349  -19.28285   -0.02375    
C           -105.90467  -4.94665    1.4506      
C           -106.34523  -5.09718    2.907       
C           -106.78577  -5.24771    4.3634      
C           -107.22632  -5.39824    5.81979     
C           -107.66688  -5.54877    7.27619     
C           -108.10743  -5.6993     8.73259     
C           -108.54798  -5.84983    10.18899    
C           -108.98853  -6.00036    11.64539    
C           -109.52119  6.24481     0.00772     
C           -110.01025  7.69348     0.00947     
C           -110.49931  9.14216     0.01122     
C           -110.98837  10.59083    0.01298     
C           -111.47743  12.03951    0.01473     
C           -111.9665   13.48818    0.01648     
C           -112.45556  14.93685    0.01823     
C           -112.94462  16.38553    0.01998     
C           -113.43368  17.8342     0.02173     
C           -113.92274  19.28288    0.02349     
C           -108.59155  4.94663     -1.45043    
C           -108.15097  5.09713     -2.90682    
C           -107.7104   5.24762     -4.36322    
C           -107.26982  5.39812     -5.81961    
C           -106.82925  5.54862     -7.27601    
C           -106.38867  5.69911     -8.7324     
C           -105.9481   5.84961     -10.18879   
C           -105.50752  6.00011     -11.64519   
C           -93.64533   0.69021     0.00459     
C           -94.33983   -0.51703    0.00391     
S           -94.76313   2.07966     0.00898     
C           -95.73122   -0.32229    0.00852     
C           -96.13734   1.01508     0.01158     
H           -98.03363   2.16639     -0.01595    
H           -93.82805   -1.47528    0.00092     
S           -97.11613   -1.38685    0.01585     
C           -97.53777   1.20278     0.00449     
C           -98.22113   0.0         -0.0        
C           -89.06022   -0.79362    -0.00258    
C           -89.97822   0.26166     -0.00054    
N           -89.80695   -1.97155    -0.0023     
C           -91.21549   -1.70352    -0.00046    
C           -90.05929   1.70355     0.00082     
O           -89.21421   2.59757     0.0008      
O           -92.06058   -2.59754    -0.00052    
C           -91.93233   3.34746     0.00422     
C           -89.34245   -3.34744    -0.00401    
C           -88.85339   -4.79612    -0.0058     
H           -89.65651   -3.45476    1.03424     
H           -89.02839   -3.24013    -1.04225    
H           -91.61825   3.45475     -1.03403    
C           -92.42139   4.79614     0.00597     
H           -92.24641   3.24017     1.04246     
N           -91.46784   1.97157     0.00255     
C           -91.29655   -0.26165    0.00086     
C           -92.21457   0.79363     0.00284     
C           -83.05365   0.0         -0.0        
C           -83.73703   -1.20278    -0.00453    
S           -84.15865   1.38686     -0.0157     
C           -85.13744   -1.01506    -0.01154    
C           -85.54357   0.3223      -0.00837    
H           -87.44673   1.4753      -0.00061    
H           -83.24116   -2.16638    0.01582     
S           -86.51165   -2.07964    -0.00893    
C           -86.93496   0.51706     -0.00368    
C           -87.62946   -0.69018    -0.00439    
C           -88.36432   -6.24479    -0.00759    
C           -87.87526   -7.69346    -0.00939    
C           -87.3862    -9.14214    -0.01118    
C           -86.89714   -10.59081   -0.01298    
C           -86.40808   -12.03949   -0.01477    
C           -85.91901   -13.48816   -0.01657    
C           -85.42994   -14.93683   -0.01836    
C           -84.94089   -16.38551   -0.02016    
C           -84.45182   -17.83418   -0.02195    
C           -83.96276   -19.28285   -0.02375    
C           -89.29394   -4.94665    1.4506      
C           -89.7345    -5.09718    2.907       
C           -90.17504   -5.24771    4.3634      
C           -90.61559   -5.39824    5.81979     
C           -91.05615   -5.54877    7.27619     
C           -91.4967    -5.6993     8.73259     
C           -91.93725   -5.84983    10.18899    
C           -92.3778    -6.00036    11.64539    
C           -92.91046   6.24481     0.00772     
C           -93.39952   7.69348     0.00947     
C           -93.88858   9.14216     0.01122     
C           -94.37764   10.59083    0.01298     
C           -94.8667    12.03951    0.01473     
C           -95.35577   13.48818    0.01648     
C           -95.84483   14.93685    0.01823     
C           -96.33389   16.38553    0.01998     
C           -96.82295   17.8342     0.02173     
C           -97.31201   19.28288    0.02349     
C           -91.98082   4.94663     -1.45043    
C           -91.54024   5.09713     -2.90682    
C           -91.09967   5.24762     -4.36322    
C           -90.65909   5.39812     -5.81961    
C           -90.21852   5.54862     -7.27601    
C           -89.77794   5.69911     -8.7324     
C           -89.33737   5.84961     -10.18879   
C           -88.89679   6.00011     -11.64519   
C           -77.0346    0.69021     0.00459     
C           -77.7291    -0.51703    0.00391     
S           -78.1524    2.07966     0.00898     
C           -79.12049   -0.32229    0.00852     
C           -79.52661   1.01508     0.01158     
H           -81.42291   2.16639     -0.01595    
H           -77.21732   -1.47528    0.00092     
S           -80.5054    -1.38685    0.01585     
C           -80.92704   1.20278     0.00449     
C           -81.6104    0.0         -0.0        
C           -72.44949   -0.79362    -0.00258    
C           -73.36749   0.26166     -0.00054    
N           -73.19622   -1.97155    -0.0023     
C           -74.60476   -1.70352    -0.00046    
C           -73.44856   1.70355     0.00082     
O           -72.60348   2.59757     0.0008      
O           -75.44985   -2.59754    -0.00052    
C           -75.3216    3.34746     0.00422     
C           -72.73172   -3.34744    -0.00401    
C           -72.24266   -4.79612    -0.0058     
H           -73.04578   -3.45476    1.03424     
H           -72.41766   -3.24013    -1.04225    
H           -75.00752   3.45475     -1.03403    
C           -75.81067   4.79614     0.00597     
H           -75.63568   3.24017     1.04246     
N           -74.85711   1.97157     0.00255     
C           -74.68583   -0.26165    0.00086     
C           -75.60384   0.79363     0.00284     
C           -66.44292   0.0         -0.0        
C           -67.1263    -1.20278    -0.00453    
S           -67.54792   1.38686     -0.0157     
C           -68.52671   -1.01506    -0.01154    
C           -68.93284   0.3223      -0.00837    
H           -70.836     1.4753      -0.00061    
H           -66.63043   -2.16638    0.01582     
S           -69.90092   -2.07964    -0.00893    
C           -70.32423   0.51706     -0.00368    
C           -71.01873   -0.69018    -0.00439    
C           -71.7536    -6.24479    -0.00759    
C           -71.26453   -7.69346    -0.00939    
C           -70.77548   -9.14214    -0.01118    
C           -70.28641   -10.59081   -0.01298    
C           -69.79735   -12.03949   -0.01477    
C           -69.30828   -13.48816   -0.01657    
C           -68.81922   -14.93683   -0.01836    
C           -68.33016   -16.38551   -0.02016    
C           -67.8411    -17.83418   -0.02195    
C           -67.35203   -19.28285   -0.02375    
C           -72.68321   -4.94665    1.4506      
C           -73.12377   -5.09718    2.907       
C           -73.56431   -5.24771    4.3634      
C           -74.00486   -5.39824    5.81979     
C           -74.44542   -5.54877    7.27619     
C           -74.88597   -5.6993     8.73259     
C           -75.32652   -5.84983    10.18899    
C           -75.76707   -6.00036    11.64539    
C           -76.29973   6.24481     0.00772     
C           -76.78879   7.69348     0.00947     
C           -77.27785   9.14216     0.01122     
C           -77.76691   10.59083    0.01298     
C           -78.25597   12.03951    0.01473     
C           -78.74504   13.48818    0.01648     
C           -79.2341    14.93685    0.01823     
C           -79.72316   16.38553    0.01998     
C           -80.21222   17.8342     0.02173     
C           -80.70128   19.28288    0.02349     
C           -75.37009   4.94663     -1.45043    
C           -74.92951   5.09713     -2.90682    
C           -74.48894   5.24762     -4.36322    
C           -74.04836   5.39812     -5.81961    
C           -73.60779   5.54862     -7.27601    
C           -73.16721   5.69911     -8.7324     
C           -72.72664   5.84961     -10.18879   
C           -72.28606   6.00011     -11.64519   
C           -60.42387   0.69021     0.00459     
C           -61.11837   -0.51703    0.00391     
S           -61.54167   2.07966     0.00898     
C           -62.50976   -0.32229    0.00852     
C           -62.91588   1.01508     0.01158     
H           -64.81218   2.16639     -0.01595    
H           -60.60659   -1.47528    0.00092     
S           -63.89467   -1.38685    0.01585     
C           -64.31631   1.20278     0.00449     
C           -64.99967   0.0         -0.0        
C           -55.83876   -0.79362    -0.00258    
C           -56.75676   0.26166     -0.00054    
N           -56.58549   -1.97155    -0.0023     
C           -57.99403   -1.70352    -0.00046    
C           -56.83783   1.70355     0.00082     
O           -55.99275   2.59757     0.0008      
O           -58.83912   -2.59754    -0.00052    
C           -58.71087   3.34746     0.00422     
C           -56.12099   -3.34744    -0.00401    
C           -55.63193   -4.79612    -0.0058     
H           -56.43505   -3.45476    1.03424     
H           -55.80693   -3.24013    -1.04225    
H           -58.39679   3.45475     -1.03403    
C           -59.19994   4.79614     0.00597     
H           -59.02495   3.24017     1.04246     
N           -58.24638   1.97157     0.00255     
C           -58.0751    -0.26165    0.00086     
C           -58.99311   0.79363     0.00284     
C           -49.83219   0.0         -0.0        
C           -50.51557   -1.20278    -0.00453    
S           -50.93719   1.38686     -0.0157     
C           -51.91598   -1.01506    -0.01154    
C           -52.32211   0.3223      -0.00837    
H           -54.22527   1.4753      -0.00061    
H           -50.0197    -2.16638    0.01582     
S           -53.29019   -2.07964    -0.00893    
C           -53.7135    0.51706     -0.00368    
C           -54.408     -0.69018    -0.00439    
C           -55.14287   -6.24479    -0.00759    
C           -54.6538    -7.69346    -0.00939    
C           -54.16475   -9.14214    -0.01118    
C           -53.67568   -10.59081   -0.01298    
C           -53.18662   -12.03949   -0.01477    
C           -52.69755   -13.48816   -0.01657    
C           -52.20849   -14.93683   -0.01836    
C           -51.71943   -16.38551   -0.02016    
C           -51.23037   -17.83418   -0.02195    
C           -50.7413    -19.28285   -0.02375    
C           -56.07248   -4.94665    1.4506      
C           -56.51304   -5.09718    2.907       
C           -56.95358   -5.24771    4.3634      
C           -57.39413   -5.39824    5.81979     
C           -57.83469   -5.54877    7.27619     
C           -58.27524   -5.6993     8.73259     
C           -58.7158    -5.84983    10.18899    
C           -59.15634   -6.00036    11.64539    
C           -59.689     6.24481     0.00772     
C           -60.17806   7.69348     0.00947     
C           -60.66712   9.14216     0.01122     
C           -61.15618   10.59083    0.01298     
C           -61.64525   12.03951    0.01473     
C           -62.13431   13.48818    0.01648     
C           -62.62337   14.93685    0.01823     
C           -63.11243   16.38553    0.01998     
C           -63.60149   17.8342     0.02173     
C           -64.09055   19.28288    0.02349     
C           -58.75936   4.94663     -1.45043    
C           -58.31879   5.09713     -2.90682    
C           -57.87821   5.24762     -4.36322    
C           -57.43763   5.39812     -5.81961    
C           -56.99706   5.54862     -7.27601    
C           -56.55648   5.69911     -8.7324     
C           -56.11591   5.84961     -10.18879   
C           -55.67533   6.00011     -11.64519   
C           -43.81314   0.69021     0.00459     
C           -44.50764   -0.51703    0.00391     
S           -44.93094   2.07966     0.00898     
C           -45.89903   -0.32229    0.00852     
C           -46.30515   1.01508     0.01158     
H           -48.20145   2.16639     -0.01595    
H           -43.99586   -1.47528    0.00092     
S           -47.28394   -1.38685    0.01585     
C           -47.70558   1.20278     0.00449     
C           -48.38894   0.0         -0.0        
C           -39.22803   -0.79362    -0.00258    
C           -40.14603   0.26166     -0.00054    
N           -39.97476   -1.97155    -0.0023     
C           -41.3833    -1.70352    -0.00046    
C           -40.2271    1.70355     0.00082     
O           -39.38202   2.59757     0.0008      
O           -42.22839   -2.59754    -0.00052    
C           -42.10014   3.34746     0.00422     
C           -39.51026   -3.34744    -0.00401    
C           -39.0212    -4.79612    -0.0058     
H           -39.82433   -3.45476    1.03424     
H           -39.1962    -3.24013    -1.04225    
H           -41.78607   3.45475     -1.03403    
C           -42.58921   4.79614     0.00597     
H           -42.41422   3.24017     1.04246     
N           -41.63565   1.97157     0.00255     
C           -41.46437   -0.26165    0.00086     
C           -42.38238   0.79363     0.00284     
C           -33.22146   0.0         -0.0        
C           -33.90484   -1.20278    -0.00453    
S           -34.32647   1.38686     -0.0157     
C           -35.30525   -1.01506    -0.01154    
C           -35.71138   0.3223      -0.00837    
H           -37.61454   1.4753      -0.00061    
H           -33.40897   -2.16638    0.01582     
S           -36.67946   -2.07964    -0.00893    
C           -37.10277   0.51706     -0.00368    
C           -37.79727   -0.69018    -0.00439    
C           -38.53214   -6.24479    -0.00759    
C           -38.04307   -7.69346    -0.00939    
C           -37.55402   -9.14214    -0.01118    
C           -37.06495   -10.59081   -0.01298    
C           -36.57589   -12.03949   -0.01477    
C           -36.08682   -13.48816   -0.01657    
C           -35.59776   -14.93683   -0.01836    
C           -35.1087    -16.38551   -0.02016    
C           -34.61964   -17.83418   -0.02195    
C           -34.13057   -19.28285   -0.02375    
C           -39.46175   -4.94665    1.4506      
C           -39.90231   -5.09718    2.907       
C           -40.34285   -5.24771    4.3634      
C           -40.78341   -5.39824    5.81979     
C           -41.22396   -5.54877    7.27619     
C           -41.66451   -5.6993     8.73259     
C           -42.10507   -5.84983    10.18899    
C           -42.54561   -6.00036    11.64539    
C           -43.07827   6.24481     0.00772     
C           -43.56733   7.69348     0.00947     
C           -44.05639   9.14216     0.01122     
C           -44.54545   10.59083    0.01298     
C           -45.03452   12.03951    0.01473     
C           -45.52358   13.48818    0.01648     
C           -46.01264   14.93685    0.01823     
C           -46.5017    16.38553    0.01998     
C           -46.99076   17.8342     0.02173     
C           -47.47982   19.28288    0.02349     
C           -42.14863   4.94663     -1.45043    
C           -41.70806   5.09713     -2.90682    
C           -41.26748   5.24762     -4.36322    
C           -40.8269    5.39812     -5.81961    
C           -40.38633   5.54862     -7.27601    
C           -39.94575   5.69911     -8.7324     
C           -39.50518   5.84961     -10.18879   
C           -39.0646    6.00011     -11.64519   
C           -27.20241   0.69021     0.00459     
C           -27.89691   -0.51703    0.00391     
S           -28.32021   2.07966     0.00898     
C           -29.2883    -0.32229    0.00852     
C           -29.69442   1.01508     0.01158     
H           -31.59072   2.16639     -0.01595    
H           -27.38513   -1.47528    0.00092     
S           -30.67321   -1.38685    0.01585     
C           -31.09485   1.20278     0.00449     
C           -31.77821   0.0         -0.0        
C           -22.61731   -0.79362    -0.00258    
C           -23.5353    0.26166     -0.00054    
N           -23.36403   -1.97155    -0.0023     
C           -24.77257   -1.70352    -0.00046    
C           -23.61637   1.70355     0.00082     
O           -22.77129   2.59757     0.0008      
O           -25.61766   -2.59754    -0.00052    
C           -25.48941   3.34746     0.00422     
C           -22.89954   -3.34744    -0.00401    
C           -22.41047   -4.79612    -0.0058     
H           -23.2136    -3.45476    1.03424     
H           -22.58547   -3.24013    -1.04225    
H           -25.17534   3.45475     -1.03403    
C           -25.97848   4.79614     0.00597     
H           -25.80349   3.24017     1.04246     
N           -25.02492   1.97157     0.00255     
C           -24.85364   -0.26165    0.00086     
C           -25.77165   0.79363     0.00284     
C           -16.61073   0.0         -0.0        
C           -17.29411   -1.20278    -0.00453    
S           -17.71574   1.38686     -0.0157     
C           -18.69452   -1.01506    -0.01154    
C           -19.10065   0.3223      -0.00837    
H           -21.00381   1.4753      -0.00061    
H           -16.79824   -2.16638    0.01582     
S           -20.06873   -2.07964    -0.00893    
C           -20.49204   0.51706     -0.00368    
C           -21.18654   -0.69018    -0.00439    
C           -21.92141   -6.24479    -0.00759    
C           -21.43234   -7.69346    -0.00939    
C           -20.94329   -9.14214    -0.01118    
C           -20.45422   -10.59081   -0.01298    
C           -19.96516   -12.03949   -0.01477    
C           -19.47609   -13.48816   -0.01657    
C           -18.98703   -14.93683   -0.01836    
C           -18.49797   -16.38551   -0.02016    
C           -18.00891   -17.83418   -0.02195    
C           -17.51984   -19.28285   -0.02375    
C           -22.85102   -4.94665    1.4506      
C           -23.29158   -5.09718    2.907       
C           -23.73212   -5.24771    4.3634      
C           -24.17268   -5.39824    5.81979     
C           -24.61323   -5.54877    7.27619     
C           -25.05378   -5.6993     8.73259     
C           -25.49434   -5.84983    10.18899    
C           -25.93488   -6.00036    11.64539    
C           -26.46754   6.24481     0.00772     
C           -26.9566    7.69348     0.00947     
C           -27.44566   9.14216     0.01122     
C           -27.93472   10.59083    0.01298     
C           -28.42379   12.03951    0.01473     
C           -28.91285   13.48818    0.01648     
C           -29.40191   14.93685    0.01823     
C           -29.89097   16.38553    0.01998     
C           -30.38003   17.8342     0.02173     
C           -30.8691    19.28288    0.02349     
C           -25.5379    4.94663     -1.45043    
C           -25.09733   5.09713     -2.90682    
C           -24.65675   5.24762     -4.36322    
C           -24.21618   5.39812     -5.81961    
C           -23.7756    5.54862     -7.27601    
C           -23.33502   5.69911     -8.7324     
C           -22.89445   5.84961     -10.18879   
C           -22.45387   6.00011     -11.64519   
C           -10.59168   0.69021     0.00459     
C           -11.28618   -0.51703    0.00391     
S           -11.70948   2.07966     0.00898     
C           -12.67757   -0.32229    0.00852     
C           -13.0837    1.01508     0.01158     
H           -14.97999   2.16639     -0.01595    
H           -10.77441   -1.47528    0.00092     
S           -14.06248   -1.38685    0.01585     
C           -14.48412   1.20278     0.00449     
C           -15.16748   0.0         -0.0        
C           -6.00658    -0.79362    -0.00258    
C           -6.92457    0.26166     -0.00054    
N           -6.7533     -1.97155    -0.0023     
C           -8.16184    -1.70352    -0.00046    
C           -7.00565    1.70355     0.00082     
O           -6.16056    2.59757     0.0008      
O           -9.00693    -2.59754    -0.00052    
C           -8.87869    3.34746     0.00422     
C           -6.28881    -3.34744    -0.00401    
C           -5.79974    -4.79612    -0.0058     
H           -6.60287    -3.45476    1.03424     
H           -5.97475    -3.24013    -1.04225    
H           -8.56461    3.45475     -1.03403    
C           -9.36775    4.79614     0.00597     
H           -9.19276    3.24017     1.04246     
N           -8.41419    1.97157     0.00255     
C           -8.24291    -0.26165    0.00086     
C           -9.16092    0.79363     0.00284     
C           0.0         0.0         0.0         
C           -0.68338    -1.20278    -0.00453    
S           -1.10501    1.38686     -0.0157     
C           -2.08379    -1.01506    -0.01154    
C           -2.48992    0.3223      -0.00837    
H           -4.39308    1.4753      -0.00061    
H           -0.18751    -2.16638    0.01582     
S           -3.458      -2.07964    -0.00893    
C           -3.88131    0.51706     -0.00368    
C           -4.57581    -0.69018    -0.00439    
C           -5.31068    -6.24479    -0.00759    
C           -4.82161    -7.69346    -0.00939    
C           -4.33256    -9.14214    -0.01118    
C           -3.84349    -10.59081   -0.01298    
C           -3.35443    -12.03949   -0.01477    
C           -2.86536    -13.48816   -0.01657    
C           -2.3763     -14.93683   -0.01836    
C           -1.88724    -16.38551   -0.02016    
C           -1.39818    -17.83418   -0.02195    
C           -0.90911    -19.28285   -0.02375    
C           -6.24029    -4.94665    1.4506      
C           -6.68085    -5.09718    2.907       
C           -7.12139    -5.24771    4.3634      
C           -7.56195    -5.39824    5.81979     
C           -8.0025     -5.54877    7.27619     
C           -8.44305    -5.6993     8.73259     
C           -8.88361    -5.84983    10.18899    
C           -9.32415    -6.00036    11.64539    
C           -9.85681    6.24481     0.00772     
C           -10.34587   7.69348     0.00947     
C           -10.83493   9.14216     0.01122     
C           -11.32399   10.59083    0.01298     
C           -11.81306   12.03951    0.01473     
C           -12.30212   13.48818    0.01648     
C           -12.79118   14.93685    0.01823     
C           -13.28024   16.38553    0.01998     
C           -13.7693    17.8342     0.02173     
C           -14.25837   19.28288    0.02349     
C           -8.92717    4.94663     -1.45043    
C           -8.4866     5.09713     -2.90682    
C           -8.04602    5.24762     -4.36322    
C           -7.60545    5.39812     -5.81961    
C           -7.16487    5.54862     -7.27601    
C           -6.7243     5.69911     -8.7324     
C           -6.28372    5.84961     -10.18879   
C           -5.84314    6.00011     -11.64519   
H           -165.75405  0.0         -0.0        
H           1.09        0.0         0.0         
