752

C           -134.13012  0.51462     0.00199     
N           -134.85553  1.66458     0.00636     
C           -134.72891  -0.75245    -0.00282    
C           -136.16157  1.51208     0.0058      
C           -136.89947  0.29091     0.00117     
C           -138.32184  0.6413      0.00252     
C           -138.34307  2.1637      0.00828     
N           -137.02721  2.59379     0.00992     
C           -139.47081  -0.12371    -0.00037    
C           -139.44926  -1.64791    -0.00609    
N           -140.76393  -2.07771    -0.00774    
C           -141.6297   -0.99484    -0.00367    
C           -141.67375  1.38818     0.00528     
C           -140.89251  0.22552     0.00094     
C           -136.11989  -0.87185    -0.00325    
O           -138.49703  -2.4143     -0.00899    
O           -139.29416  2.93143     0.01122     
C           -141.16911  -3.4696     -0.013      
C           -136.62292  3.98589     0.01521     
H           -136.65088  3.98987     1.10484     
C           -136.19649  5.45422     0.02079     
H           -136.59495  3.98192     -1.07442    
H           -141.1405   -3.4738     -1.10262    
C           -141.59647  -4.93765    -0.01855    
H           -141.19772  -3.46539    1.07661     
H           -143.68707  2.15434     0.00809     
H           -141.20576  2.36        0.00894     
H           -136.58858  -1.8433     -0.00693    
H           -134.10759  -1.64036    -0.00621    
C           -143.0639   1.26776     0.00478     
N           -142.93588  -1.1485     -0.00429    
C           -143.66239  -0.0        -0.0        
C           -130.59853  -0.0        -0.0        
C           -130.56012  1.37769     0.00524     
O           -131.90015  -0.42211    -0.00159    
H           -129.65952  1.97314     0.00749     
H           -132.27155  2.83647     0.0108      
C           -131.90312  1.82168     0.00694     
C           -132.69331  0.69237     0.00266     
C           -142.02381  -6.4057     -0.02411    
C           -142.45116  -7.87376    -0.02966    
C           -142.87852  -9.34181    -0.0352     
C           -143.30587  -10.80986   -0.04075    
C           -143.73321  -12.27792   -0.04631    
C           -144.16056  -13.74597   -0.05185    
C           -144.58792  -15.21403   -0.0574     
C           -145.01527  -16.68208   -0.06296    
C           -145.44262  -18.15013   -0.0685     
C           -145.86997  -19.61819   -0.07405    
C           -141.55633  -4.94356    -1.54701    
C           -141.51619  -4.94946    -3.07548    
C           -141.47606  -4.95537    -4.60394    
C           -141.43593  -4.96127    -6.1324     
C           -141.39579  -4.96717    -7.66086    
C           -141.35566  -4.97308    -9.18932    
C           -141.31552  -4.97899    -10.71779   
C           -141.27539  -4.98489    -12.24625   
C           -135.77006  6.92254     0.02637     
C           -135.34363  8.39086     0.03196     
C           -134.9172   9.85918     0.03754     
C           -134.49077  11.3275     0.04312     
C           -134.06434  12.79582    0.0487      
C           -133.63791  14.26414    0.05429     
C           -133.21148  15.73247    0.05987     
C           -132.78505  17.20079    0.06545     
C           -132.35862  18.66911    0.07103     
C           -131.93219  20.13743    0.07662     
C           -136.23572  5.4598      1.54928     
C           -136.27495  5.46538     3.07777     
C           -136.31418  5.47096     4.60625     
C           -136.35341  5.47655     6.13474     
C           -136.39264  5.48213     7.66322     
C           -136.43187  5.48771     9.19171     
C           -136.4711   5.49329     10.7202     
C           -136.51033  5.49887     12.24868    
C           -119.61918  -0.51462    0.00239     
N           -120.34458  -1.66457    0.0078      
C           -120.21797  0.75245     -0.00358    
C           -121.65062  -1.51207    0.00707     
C           -122.38852  -0.29091    0.0013      
C           -123.8109   -0.6413     0.00294     
C           -123.83213  -2.16369    0.01013     
N           -122.51626  -2.59378    0.01215     
C           -124.95986  0.12371     -0.00068    
C           -124.93832  1.64791     -0.00793    
N           -126.25299  2.0777      -0.00993    
C           -127.11875  0.99484     -0.00479    
C           -127.1628   -1.38818    0.00653     
C           -126.38156  -0.22552    0.00098     
C           -121.60894  0.87185     -0.00416    
O           -123.98608  2.41429     -0.01155    
O           -124.78321  -2.93142    0.01372     
C           -126.65817  3.46958     -0.01651    
C           -122.11197  -3.98588    0.0187      
H           -122.13994  -3.99913    -1.07087    
C           -121.68554  -5.4542     0.0256      
H           -122.084    -3.97263    1.10826     
H           -126.62956  3.48306     1.07303     
C           -127.08552  4.93763     -0.02345    
H           -126.68677  3.4561      -1.10605    
H           -129.17612  -2.15433    0.01023     
H           -126.69481  -2.35999    0.01114     
H           -122.07763  1.8433      -0.00875    
H           -119.59665  1.64035     -0.00775    
C           -128.55295  -1.26775    0.006       
N           -128.42494  1.1485      -0.00548    
C           -129.15144  -0.0        -0.0        
C           -116.08758  -0.0        -0.0        
C           -116.04917  -1.37769    0.00648     
O           -117.38921  0.42211     -0.002      
H           -115.14857  -1.97314    0.00929     
H           -117.7606   -2.83646    0.01333     
C           -117.39217  -1.82168    0.00856     
C           -118.18237  -0.69237    0.00323     
C           -127.51286  6.40568     -0.03038    
C           -127.94021  7.87373     -0.03732    
C           -128.36757  9.34177     -0.04426    
C           -128.79492  10.80982    -0.0512     
C           -129.22226  12.27787    -0.05813    
C           -129.64962  13.74592    -0.06507    
C           -130.07697  15.21397    -0.07201    
C           -130.50432  16.68201    -0.07895    
C           -130.93168  18.15006    -0.08589    
C           -131.35902  19.61811    -0.09283    
C           -127.04538  4.95654     1.50491     
C           -127.00525  4.97545     3.03326     
C           -126.96511  4.99435     4.56162     
C           -126.92498  5.01325     6.08998     
C           -126.88485  5.03216     7.61833     
C           -126.84471  5.05107     9.14669     
C           -126.80458  5.06998     10.67505    
C           -126.76444  5.08888     12.2034     
C           -121.25911  -6.92251    0.03251     
C           -120.83268  -8.39083    0.03942     
C           -120.40625  -9.85914    0.04633     
C           -119.97982  -11.32746   0.05323     
C           -119.55339  -12.79577   0.06014     
C           -119.12696  -14.26409   0.06705     
C           -118.70053  -15.73241   0.07396     
C           -118.2741   -17.20072   0.08086     
C           -117.84767  -18.66904   0.08777     
C           -117.42124  -20.13735   0.09468     
C           -121.72477  -5.47278    -1.50278    
C           -121.764    -5.49136    -3.03116    
C           -121.80323  -5.50995    -4.55955    
C           -121.84246  -5.52853    -6.08793    
C           -121.88169  -5.54711    -7.61632    
C           -121.92092  -5.5657     -9.1447     
C           -121.96016  -5.58428    -10.67308   
C           -121.99939  -5.60287    -12.20147   
C           -105.10823  0.51462     -0.00239    
N           -105.83363  1.66457     -0.0078     
C           -105.70702  -0.75245    0.00358     
C           -107.13967  1.51207     -0.00707    
C           -107.87757  0.29091     -0.0013     
C           -109.29995  0.6413      -0.00294    
C           -109.32118  2.16369     -0.01013    
N           -108.00532  2.59378     -0.01215    
C           -110.44891  -0.12371    0.00068     
C           -110.42737  -1.64791    0.00793     
N           -111.74204  -2.0777     0.00993     
C           -112.60781  -0.99484    0.00479     
C           -112.65186  1.38818     -0.00653    
C           -111.87062  0.22552     -0.00098    
C           -107.098    -0.87185    0.00416     
O           -109.47514  -2.41429    0.01155     
O           -110.27226  2.93142     -0.01372    
C           -112.14722  -3.46958    0.01651     
C           -107.60102  3.98588     -0.0187     
H           -107.62899  3.99913     1.07087     
C           -107.17459  5.4542      -0.0256     
H           -107.57306  3.97263     -1.10826    
H           -112.11861  -3.48306    -1.07303    
C           -112.57457  -4.93763    0.02345     
H           -112.17583  -3.4561     1.10605     
H           -114.66518  2.15433     -0.01023    
H           -112.18386  2.35999     -0.01114    
H           -107.56668  -1.8433     0.00875     
H           -105.0857   -1.64035    0.00775     
C           -114.042    1.26775     -0.006      
N           -113.91399  -1.1485     0.00548     
C           -114.64049  -0.0        -0.0        
C           -101.57663  -0.0        -0.0        
C           -101.53822  1.37769     -0.00648    
O           -102.87826  -0.42211    0.002       
H           -100.63763  1.97314     -0.00929    
H           -103.24965  2.83646     -0.01333    
C           -102.88123  1.82168     -0.00856    
C           -103.67142  0.69237     -0.00323    
C           -113.00191  -6.40568    0.03038     
C           -113.42927  -7.87373    0.03732     
C           -113.85662  -9.34177    0.04426     
C           -114.28397  -10.80982   0.0512      
C           -114.71132  -12.27787   0.05813     
C           -115.13867  -13.74592   0.06507     
C           -115.56602  -15.21397   0.07201     
C           -115.99337  -16.68201   0.07895     
C           -116.42073  -18.15006   0.08589     
C           -116.84807  -19.61811   0.09283     
C           -112.53444  -4.95654    -1.50491    
C           -112.4943   -4.97545    -3.03326    
C           -112.45416  -4.99435    -4.56162    
C           -112.41404  -5.01325    -6.08998    
C           -112.3739   -5.03216    -7.61833    
C           -112.33376  -5.05107    -9.14669    
C           -112.29363  -5.06998    -10.67505   
C           -112.25349  -5.08888    -12.2034    
C           -106.74816  6.92251     -0.03251    
C           -106.32173  8.39083     -0.03942    
C           -105.8953   9.85914     -0.04633    
C           -105.46887  11.32746    -0.05323    
C           -105.04244  12.79577    -0.06014    
C           -104.61601  14.26409    -0.06705    
C           -104.18958  15.73241    -0.07396    
C           -103.76315  17.20072    -0.08086    
C           -103.33672  18.66904    -0.08777    
C           -102.91029  20.13735    -0.09468    
C           -107.21382  5.47278     1.50278     
C           -107.25305  5.49136     3.03116     
C           -107.29228  5.50995     4.55955     
C           -107.33152  5.52853     6.08793     
C           -107.37075  5.54711     7.61632     
C           -107.40998  5.5657      9.1447      
C           -107.44921  5.58428     10.67308    
C           -107.48844  5.60287     12.20147    
C           -90.59728   -0.51462    0.00239     
N           -91.32269   -1.66457    0.0078      
C           -91.19607   0.75245     -0.00358    
C           -92.62872   -1.51207    0.00707     
C           -93.36662   -0.29091    0.0013      
C           -94.789     -0.6413     0.00294     
C           -94.81023   -2.16369    0.01013     
N           -93.49437   -2.59378    0.01215     
C           -95.93797   0.12371     -0.00068    
C           -95.91642   1.64791     -0.00793    
N           -97.23109   2.0777      -0.00993    
C           -98.09686   0.99484     -0.00479    
C           -98.14091   -1.38818    0.00653     
C           -97.35967   -0.22552    0.00098     
C           -92.58705   0.87185     -0.00416    
O           -94.96419   2.41429     -0.01155    
O           -95.76131   -2.93142    0.01372     
C           -97.63627   3.46958     -0.01651    
C           -93.09007   -3.98588    0.0187      
H           -93.11804   -3.99913    -1.07087    
C           -92.66364   -5.4542     0.0256      
H           -93.06211   -3.97263    1.10826     
H           -97.60766   3.48306     1.07303     
C           -98.06362   4.93763     -0.02345    
H           -97.66488   3.4561      -1.10605    
H           -100.15423  -2.15433    0.01023     
H           -97.67292   -2.35999    0.01114     
H           -93.05573   1.8433      -0.00875    
H           -90.57475   1.64035     -0.00775    
C           -99.53106   -1.26775    0.006       
N           -99.40304   1.1485      -0.00548    
C           -100.12955  -0.0        -0.0        
C           -87.06569   -0.0        -0.0        
C           -87.02727   -1.37769    0.00648     
O           -88.36731   0.42211     -0.002      
H           -86.12668   -1.97314    0.00929     
H           -88.7387    -2.83646    0.01333     
C           -88.37028   -1.82168    0.00856     
C           -89.16047   -0.69237    0.00323     
C           -98.49097   6.40568     -0.03038    
C           -98.91832   7.87373     -0.03732    
C           -99.34567   9.34177     -0.04426    
C           -99.77303   10.80982    -0.0512     
C           -100.20037  12.27787    -0.05813    
C           -100.62772  13.74592    -0.06507    
C           -101.05507  15.21397    -0.07201    
C           -101.48243  16.68201    -0.07895    
C           -101.90978  18.15006    -0.08589    
C           -102.33712  19.61811    -0.09283    
C           -98.02349   4.95654     1.50491     
C           -97.98335   4.97545     3.03326     
C           -97.94322   4.99435     4.56162     
C           -97.90309   5.01325     6.08998     
C           -97.86295   5.03216     7.61833     
C           -97.82282   5.05107     9.14669     
C           -97.78268   5.06998     10.67505    
C           -97.74254   5.08888     12.2034     
C           -92.23721   -6.92251    0.03251     
C           -91.81078   -8.39083    0.03942     
C           -91.38436   -9.85914    0.04633     
C           -90.95793   -11.32746   0.05323     
C           -90.5315    -12.79577   0.06014     
C           -90.10507   -14.26409   0.06705     
C           -89.67864   -15.73241   0.07396     
C           -89.25221   -17.20072   0.08086     
C           -88.82578   -18.66904   0.08777     
C           -88.39935   -20.13735   0.09468     
C           -92.70288   -5.47278    -1.50278    
C           -92.74211   -5.49136    -3.03116    
C           -92.78134   -5.50995    -4.55955    
C           -92.82057   -5.52853    -6.08793    
C           -92.8598    -5.54711    -7.61632    
C           -92.89903   -5.5657     -9.1447     
C           -92.93826   -5.58428    -10.67308   
C           -92.97749   -5.60287    -12.20147   
C           -76.08633   0.51462     -0.00239    
N           -76.81174   1.66457     -0.0078     
C           -76.68512   -0.75245    0.00358     
C           -78.11778   1.51207     -0.00707    
C           -78.85568   0.29091     -0.0013     
C           -80.27805   0.6413      -0.00294    
C           -80.29928   2.16369     -0.01013    
N           -78.98342   2.59378     -0.01215    
C           -81.42702   -0.12371    0.00068     
C           -81.40547   -1.64791    0.00793     
N           -82.72014   -2.0777     0.00993     
C           -83.58591   -0.99484    0.00479     
C           -83.62996   1.38818     -0.00653    
C           -82.84872   0.22552     -0.00098    
C           -78.0761    -0.87185    0.00416     
O           -80.45324   -2.41429    0.01155     
O           -81.25037   2.93142     -0.01372    
C           -83.12532   -3.46958    0.01651     
C           -78.57913   3.98588     -0.0187     
H           -78.60709   3.99913     1.07087     
C           -78.1527    5.4542      -0.0256     
H           -78.55116   3.97263     -1.10826    
H           -83.09671   -3.48306    -1.07303    
C           -83.55268   -4.93763    0.02345     
H           -83.15393   -3.4561     1.10605     
H           -85.64328   2.15433     -0.01023    
H           -83.16197   2.35999     -0.01114    
H           -78.54479   -1.8433     0.00875     
H           -76.0638    -1.64035    0.00775     
C           -85.02011   1.26775     -0.006      
N           -84.89209   -1.1485     0.00548     
C           -85.6186    -0.0        -0.0        
C           -72.55474   -0.0        -0.0        
C           -72.51632   1.37769     -0.00648    
O           -73.85636   -0.42211    0.002       
H           -71.61573   1.97314     -0.00929    
H           -74.22775   2.83646     -0.01333    
C           -73.85933   1.82168     -0.00856    
C           -74.64952   0.69237     -0.00323    
C           -83.98002   -6.40568    0.03038     
C           -84.40737   -7.87373    0.03732     
C           -84.83472   -9.34177    0.04426     
C           -85.26208   -10.80982   0.0512      
C           -85.68942   -12.27787   0.05813     
C           -86.11677   -13.74592   0.06507     
C           -86.54413   -15.21397   0.07201     
C           -86.97148   -16.68201   0.07895     
C           -87.39883   -18.15006   0.08589     
C           -87.82618   -19.61811   0.09283     
C           -83.51254   -4.95654    -1.50491    
C           -83.4724    -4.97545    -3.03326    
C           -83.43227   -4.99435    -4.56162    
C           -83.39214   -5.01325    -6.08998    
C           -83.352     -5.03216    -7.61833    
C           -83.31187   -5.05107    -9.14669    
C           -83.27173   -5.06998    -10.67505   
C           -83.23159   -5.08888    -12.2034    
C           -77.72627   6.92251     -0.03251    
C           -77.29984   8.39083     -0.03942    
C           -76.87341   9.85914     -0.04633    
C           -76.44698   11.32746    -0.05323    
C           -76.02055   12.79577    -0.06014    
C           -75.59412   14.26409    -0.06705    
C           -75.16769   15.73241    -0.07396    
C           -74.74126   17.20072    -0.08086    
C           -74.31483   18.66904    -0.08777    
C           -73.8884    20.13735    -0.09468    
C           -78.19193   5.47278     1.50278     
C           -78.23116   5.49136     3.03116     
C           -78.27039   5.50995     4.55955     
C           -78.30962   5.52853     6.08793     
C           -78.34885   5.54711     7.61632     
C           -78.38808   5.5657      9.1447      
C           -78.42731   5.58428     10.67308    
C           -78.46654   5.60287     12.20147    
C           -61.57539   -0.51462    0.00239     
N           -62.30079   -1.66457    0.0078      
C           -62.17417   0.75245     -0.00358    
C           -63.60683   -1.51207    0.00707     
C           -64.34473   -0.29091    0.0013      
C           -65.76711   -0.6413     0.00294     
C           -65.78833   -2.16369    0.01013     
N           -64.47247   -2.59378    0.01215     
C           -66.91607   0.12371     -0.00068    
C           -66.89452   1.64791     -0.00793    
N           -68.20919   2.0777      -0.00993    
C           -69.07496   0.99484     -0.00479    
C           -69.11901   -1.38818    0.00653     
C           -68.33777   -0.22552    0.00098     
C           -63.56515   0.87185     -0.00416    
O           -65.94229   2.41429     -0.01155    
O           -66.73942   -2.93142    0.01372     
C           -68.61437   3.46958     -0.01651    
C           -64.06818   -3.98588    0.0187      
H           -64.09615   -3.99913    -1.07087    
C           -63.64175   -5.4542     0.0256      
H           -64.04021   -3.97263    1.10826     
H           -68.58577   3.48306     1.07303     
C           -69.04173   4.93763     -0.02345    
H           -68.64298   3.4561      -1.10605    
H           -71.13233   -2.15433    0.01023     
H           -68.65102   -2.35999    0.01114     
H           -64.03384   1.8433      -0.00875    
H           -61.55285   1.64035     -0.00775    
C           -70.50916   -1.26775    0.006       
N           -70.38115   1.1485      -0.00548    
C           -71.10765   -0.0        -0.0        
C           -58.04379   -0.0        -0.0        
C           -58.00538   -1.37769    0.00648     
O           -59.34542   0.42211     -0.002      
H           -57.10478   -1.97314    0.00929     
H           -59.71681   -2.83646    0.01333     
C           -59.34838   -1.82168    0.00856     
C           -60.13858   -0.69237    0.00323     
C           -69.46907   6.40568     -0.03038    
C           -69.89642   7.87373     -0.03732    
C           -70.32378   9.34177     -0.04426    
C           -70.75113   10.80982    -0.0512     
C           -71.17847   12.27787    -0.05813    
C           -71.60583   13.74592    -0.06507    
C           -72.03318   15.21397    -0.07201    
C           -72.46053   16.68201    -0.07895    
C           -72.88788   18.15006    -0.08589    
C           -73.31523   19.61811    -0.09283    
C           -69.00159   4.95654     1.50491     
C           -68.96146   4.97545     3.03326     
C           -68.92132   4.99435     4.56162     
C           -68.88119   5.01325     6.08998     
C           -68.84106   5.03216     7.61833     
C           -68.80092   5.05107     9.14669     
C           -68.76079   5.06998     10.67505    
C           -68.72065   5.08888     12.2034     
C           -63.21532   -6.92251    0.03251     
C           -62.78889   -8.39083    0.03942     
C           -62.36246   -9.85914    0.04633     
C           -61.93603   -11.32746   0.05323     
C           -61.5096    -12.79577   0.06014     
C           -61.08317   -14.26409   0.06705     
C           -60.65674   -15.73241   0.07396     
C           -60.23031   -17.20072   0.08086     
C           -59.80388   -18.66904   0.08777     
C           -59.37745   -20.13735   0.09468     
C           -63.68098   -5.47278    -1.50278    
C           -63.72021   -5.49136    -3.03116    
C           -63.75944   -5.50995    -4.55955    
C           -63.79867   -5.52853    -6.08793    
C           -63.8379    -5.54711    -7.61632    
C           -63.87713   -5.5657     -9.1447     
C           -63.91636   -5.58428    -10.67308   
C           -63.9556    -5.60287    -12.20147   
C           -47.06444   0.51462     -0.00239    
N           -47.78984   1.66457     -0.0078     
C           -47.66323   -0.75245    0.00358     
C           -49.09588   1.51207     -0.00707    
C           -49.83378   0.29091     -0.0013     
C           -51.25616   0.6413      -0.00294    
C           -51.27739   2.16369     -0.01013    
N           -49.96153   2.59378     -0.01215    
C           -52.40512   -0.12371    0.00068     
C           -52.38358   -1.64791    0.00793     
N           -53.69825   -2.0777     0.00993     
C           -54.56401   -0.99484    0.00479     
C           -54.60807   1.38818     -0.00653    
C           -53.82683   0.22552     -0.00098    
C           -49.0542    -0.87185    0.00416     
O           -51.43134   -2.41429    0.01155     
O           -52.22847   2.93142     -0.01372    
C           -54.10343   -3.46958    0.01651     
C           -49.55723   3.98588     -0.0187     
H           -49.5852    3.99913     1.07087     
C           -49.1308    5.4542      -0.0256     
H           -49.52926   3.97263     -1.10826    
H           -54.07482   -3.48306    -1.07303    
C           -54.53078   -4.93763    0.02345     
H           -54.13204   -3.4561     1.10605     
H           -56.62138   2.15433     -0.01023    
H           -54.14007   2.35999     -0.01114    
H           -49.52289   -1.8433     0.00875     
H           -47.04191   -1.64035    0.00775     
C           -55.99821   1.26775     -0.006      
N           -55.8702    -1.1485     0.00548     
C           -56.5967    -0.0        -0.0        
C           -43.53284   -0.0        -0.0        
C           -43.49443   1.37769     -0.00648    
O           -44.83447   -0.42211    0.002       
H           -42.59384   1.97314     -0.00929    
H           -45.20586   2.83646     -0.01333    
C           -44.83743   1.82168     -0.00856    
C           -45.62763   0.69237     -0.00323    
C           -54.95812   -6.40568    0.03038     
C           -55.38548   -7.87373    0.03732     
C           -55.81283   -9.34177    0.04426     
C           -56.24018   -10.80982   0.0512      
C           -56.66753   -12.27787   0.05813     
C           -57.09488   -13.74592   0.06507     
C           -57.52223   -15.21397   0.07201     
C           -57.94958   -16.68201   0.07895     
C           -58.37694   -18.15006   0.08589     
C           -58.80428   -19.61811   0.09283     
C           -54.49064   -4.95654    -1.50491    
C           -54.45051   -4.97545    -3.03326    
C           -54.41037   -4.99435    -4.56162    
C           -54.37024   -5.01325    -6.08998    
C           -54.33011   -5.03216    -7.61833    
C           -54.28997   -5.05107    -9.14669    
C           -54.24984   -5.06998    -10.67505   
C           -54.2097    -5.08888    -12.2034    
C           -48.70437   6.92251     -0.03251    
C           -48.27794   8.39083     -0.03942    
C           -47.85151   9.85914     -0.04633    
C           -47.42508   11.32746    -0.05323    
C           -46.99865   12.79577    -0.06014    
C           -46.57222   14.26409    -0.06705    
C           -46.14579   15.73241    -0.07396    
C           -45.71936   17.20072    -0.08086    
C           -45.29293   18.66904    -0.08777    
C           -44.8665    20.13735    -0.09468    
C           -49.17003   5.47278     1.50278     
C           -49.20926   5.49136     3.03116     
C           -49.24849   5.50995     4.55955     
C           -49.28772   5.52853     6.08793     
C           -49.32696   5.54711     7.61632     
C           -49.36619   5.5657      9.1447      
C           -49.40542   5.58428     10.67308    
C           -49.44465   5.60287     12.20147    
C           -32.55349   -0.51462    0.00239     
N           -33.2789    -1.66457    0.0078      
C           -33.15228   0.75245     -0.00358    
C           -34.58493   -1.51207    0.00707     
C           -35.32283   -0.29091    0.0013      
C           -36.74521   -0.6413     0.00294     
C           -36.76644   -2.16369    0.01013     
N           -35.45058   -2.59378    0.01215     
C           -37.89418   0.12371     -0.00068    
C           -37.87263   1.64791     -0.00793    
N           -39.1873    2.0777      -0.00993    
C           -40.05307   0.99484     -0.00479    
C           -40.09712   -1.38818    0.00653     
C           -39.31588   -0.22552    0.00098     
C           -34.54326   0.87185     -0.00416    
O           -36.9204    2.41429     -0.01155    
O           -37.71752   -2.93142    0.01372     
C           -39.59248   3.46958     -0.01651    
C           -35.04628   -3.98588    0.0187      
H           -35.07425   -3.99913    -1.07087    
C           -34.61985   -5.4542     0.0256      
H           -35.01832   -3.97263    1.10826     
H           -39.56387   3.48306     1.07303     
C           -40.01983   4.93763     -0.02345    
H           -39.62109   3.4561      -1.10605    
H           -42.11044   -2.15433    0.01023     
H           -39.62913   -2.35999    0.01114     
H           -35.01194   1.8433      -0.00875    
H           -32.53096   1.64035     -0.00775    
C           -41.48726   -1.26775    0.006       
N           -41.35925   1.1485      -0.00548    
C           -42.08576   -0.0        -0.0        
C           -29.0219    -0.0        -0.0        
C           -28.98348   -1.37769    0.00648     
O           -30.32352   0.42211     -0.002      
H           -28.08289   -1.97314    0.00929     
H           -30.69491   -2.83646    0.01333     
C           -30.32649   -1.82168    0.00856     
C           -31.11668   -0.69237    0.00323     
C           -40.44718   6.40568     -0.03038    
C           -40.87453   7.87373     -0.03732    
C           -41.30188   9.34177     -0.04426    
C           -41.72923   10.80982    -0.0512     
C           -42.15658   12.27787    -0.05813    
C           -42.58393   13.74592    -0.06507    
C           -43.01128   15.21397    -0.07201    
C           -43.43864   16.68201    -0.07895    
C           -43.86599   18.15006    -0.08589    
C           -44.29333   19.61811    -0.09283    
C           -39.9797    4.95654     1.50491     
C           -39.93956   4.97545     3.03326     
C           -39.89943   4.99435     4.56162     
C           -39.8593    5.01325     6.08998     
C           -39.81916   5.03216     7.61833     
C           -39.77903   5.05107     9.14669     
C           -39.73889   5.06998     10.67505    
C           -39.69875   5.08888     12.2034     
C           -34.19342   -6.92251    0.03251     
C           -33.76699   -8.39083    0.03942     
C           -33.34056   -9.85914    0.04633     
C           -32.91413   -11.32746   0.05323     
C           -32.4877    -12.79577   0.06014     
C           -32.06127   -14.26409   0.06705     
C           -31.63485   -15.73241   0.07396     
C           -31.20842   -17.20072   0.08086     
C           -30.78199   -18.66904   0.08777     
C           -30.35556   -20.13735   0.09468     
C           -34.65908   -5.47278    -1.50278    
C           -34.69832   -5.49136    -3.03116    
C           -34.73755   -5.50995    -4.55955    
C           -34.77678   -5.52853    -6.08793    
C           -34.81601   -5.54711    -7.61632    
C           -34.85524   -5.5657     -9.1447     
C           -34.89447   -5.58428    -10.67308   
C           -34.9337    -5.60287    -12.20147   
C           -18.04254   0.51462     -0.00239    
N           -18.76795   1.66457     -0.0078     
C           -18.64133   -0.75245    0.00358     
C           -20.07399   1.51207     -0.00707    
C           -20.81189   0.29091     -0.0013     
C           -22.23426   0.6413      -0.00294    
C           -22.25549   2.16369     -0.01013    
N           -20.93963   2.59378     -0.01215    
C           -23.38323   -0.12371    0.00068     
C           -23.36168   -1.64791    0.00793     
N           -24.67635   -2.0777     0.00993     
C           -25.54212   -0.99484    0.00479     
C           -25.58617   1.38818     -0.00653    
C           -24.80493   0.22552     -0.00098    
C           -20.03231   -0.87185    0.00416     
O           -22.40945   -2.41429    0.01155     
O           -23.20658   2.93142     -0.01372    
C           -25.08153   -3.46958    0.01651     
C           -20.53534   3.98588     -0.0187     
H           -20.5633    3.99913     1.07087     
C           -20.10891   5.4542      -0.0256     
H           -20.50737   3.97263     -1.10826    
H           -25.05292   -3.48306    -1.07303    
C           -25.50888   -4.93763    0.02345     
H           -25.11014   -3.4561     1.10605     
H           -27.59949   2.15433     -0.01023    
H           -25.11818   2.35999     -0.01114    
H           -20.501     -1.8433     0.00875     
H           -18.02001   -1.64035    0.00775     
C           -26.97632   1.26775     -0.006      
N           -26.8483    -1.1485     0.00548     
C           -27.57481   -0.0        -0.0        
C           -14.51095   -0.0        -0.0        
C           -14.47253   1.37769     -0.00648    
O           -15.81257   -0.42211    0.002       
H           -13.57194   1.97314     -0.00929    
H           -16.18396   2.83646     -0.01333    
C           -15.81554   1.82168     -0.00856    
C           -16.60573   0.69237     -0.00323    
C           -25.93623   -6.40568    0.03038     
C           -26.36358   -7.87373    0.03732     
C           -26.79093   -9.34177    0.04426     
C           -27.21829   -10.80982   0.0512      
C           -27.64563   -12.27787   0.05813     
C           -28.07298   -13.74592   0.06507     
C           -28.50034   -15.21397   0.07201     
C           -28.92769   -16.68201   0.07895     
C           -29.35504   -18.15006   0.08589     
C           -29.78238   -19.61811   0.09283     
C           -25.46875   -4.95654    -1.50491    
C           -25.42861   -4.97545    -3.03326    
C           -25.38848   -4.99435    -4.56162    
C           -25.34835   -5.01325    -6.08998    
C           -25.30821   -5.03216    -7.61833    
C           -25.26808   -5.05107    -9.14669    
C           -25.22794   -5.06998    -10.67505   
C           -25.1878    -5.08888    -12.2034    
C           -19.68248   6.92251     -0.03251    
C           -19.25605   8.39083     -0.03942    
C           -18.82962   9.85914     -0.04633    
C           -18.40319   11.32746    -0.05323    
C           -17.97676   12.79577    -0.06014    
C           -17.55033   14.26409    -0.06705    
C           -17.1239    15.73241    -0.07396    
C           -16.69747   17.20072    -0.08086    
C           -16.27104   18.66904    -0.08777    
C           -15.84461   20.13735    -0.09468    
C           -20.14814   5.47278     1.50278     
C           -20.18737   5.49136     3.03116     
C           -20.2266    5.50995     4.55955     
C           -20.26583   5.52853     6.08793     
C           -20.30506   5.54711     7.61632     
C           -20.34429   5.5657      9.1447      
C           -20.38352   5.58428     10.67308    
C           -20.42275   5.60287     12.20147    
C           -3.5316     -0.51462    0.00239     
N           -4.257      -1.66457    0.0078      
C           -4.13038    0.75245     -0.00358    
C           -5.56304    -1.51207    0.00707     
C           -6.30094    -0.29091    0.0013      
C           -7.72331    -0.6413     0.00294     
C           -7.74454    -2.16369    0.01013     
N           -6.42868    -2.59378    0.01215     
C           -8.87228    0.12371     -0.00068    
C           -8.85073    1.64791     -0.00793    
N           -10.1654    2.0777      -0.00993    
C           -11.03117   0.99484     -0.00479    
C           -11.07522   -1.38818    0.00653     
C           -10.29398   -0.22552    0.00098     
C           -5.52136    0.87185     -0.00416    
O           -7.8985     2.41429     -0.01155    
O           -8.69563    -2.93142    0.01372     
C           -10.57058   3.46958     -0.01651    
C           -6.02439    -3.98588    0.0187      
H           -6.05236    -3.99913    -1.07087    
C           -5.59796    -5.4542     0.0256      
H           -5.99642    -3.97263    1.10826     
H           -10.54198   3.48306     1.07303     
C           -10.99794   4.93763     -0.02345    
H           -10.59919   3.4561      -1.10605    
H           -13.08854   -2.15433    0.01023     
H           -10.60723   -2.35999    0.01114     
H           -5.99005    1.8433      -0.00875    
H           -3.50906    1.64035     -0.00775    
C           -12.46537   -1.26775    0.006       
N           -12.33736   1.1485      -0.00548    
C           -13.06386   -0.0        0.0         
C           0.0         0.0         0.0         
C           0.03841     -1.37769    0.00648     
O           -1.30163    0.42211     -0.002      
H           0.93901     -1.97314    0.00929     
H           -1.67302    -2.83646    0.01333     
C           -1.30459    -1.82168    0.00856     
C           -2.09479    -0.69237    0.00323     
C           -11.42528   6.40568     -0.03038    
C           -11.85263   7.87373     -0.03732    
C           -12.27999   9.34177     -0.04426    
C           -12.70734   10.80982    -0.0512     
C           -13.13468   12.27787    -0.05813    
C           -13.56204   13.74592    -0.06507    
C           -13.98939   15.21397    -0.07201    
C           -14.41674   16.68201    -0.07895    
C           -14.84409   18.15006    -0.08589    
C           -15.27144   19.61811    -0.09283    
C           -10.9578    4.95654     1.50491     
C           -10.91767   4.97545     3.03326     
C           -10.87753   4.99435     4.56162     
C           -10.8374    5.01325     6.08998     
C           -10.79727   5.03216     7.61833     
C           -10.75713   5.05107     9.14669     
C           -10.71699   5.06998     10.67505    
C           -10.67686   5.08888     12.2034     
C           -5.17153    -6.92251    0.03251     
C           -4.7451     -8.39083    0.03942     
C           -4.31867    -9.85914    0.04633     
C           -3.89224    -11.32746   0.05323     
C           -3.46581    -12.79577   0.06014     
C           -3.03938    -14.26409   0.06705     
C           -2.61295    -15.73241   0.07396     
C           -2.18652    -17.20072   0.08086     
C           -1.76009    -18.66904   0.08777     
C           -1.33366    -20.13735   0.09468     
C           -5.63719    -5.47278    -1.50278    
C           -5.67642    -5.49136    -3.03116    
C           -5.71565    -5.50995    -4.55955    
C           -5.75488    -5.52853    -6.08793    
C           -5.79411    -5.54711    -7.61632    
C           -5.83334    -5.5657     -9.1447     
C           -5.87257    -5.58428    -10.67308   
C           -5.9118     -5.60287    -12.20147   
H           -144.75239  -0.0        -0.0        
H           1.09        0.0         0.0         
