432

C           -114.16212  0.4169      0.00128     
C           -114.87337  1.61189     0.00478     
S           -115.27394  -0.96727    -0.00271    
C           -118.60638  1.27863     0.00385     
C           -118.06959  -0.00092    0.00013     
C           -117.50149  2.33516     0.00692     
C           -116.26878  1.43083     0.00428     
C           -116.63528  0.09228     0.00038     
C           -117.55859  3.21992     -1.25816    
C           -117.55859  3.21254     1.2771      
H           -120.61945  2.17526     0.00631     
C           -117.6151   4.08096     2.53429     
H           -117.59493  2.31544     1.89515     
H           -117.52224  4.10965     0.65906     
H           -114.38865  2.58163     0.00757     
H           -117.59959  4.11164     -0.63267    
H           -117.5176   2.32819     -1.88366    
C           -117.61512  4.09561     -2.51028    
S           -119.28178  -1.22761    -0.00347    
C           -120.01393  1.27606     0.00378     
C           -120.56373  0.0         0.0         
C           -109.81842  0.0         0.0         
C           -110.48344  1.24064     0.00388     
C           -110.67599  -1.12007    -0.0035     
F           -109.74568  2.37871     0.00744     
F           -112.78673  -2.11624    -0.00662    
H           -110.2798   -2.12812    -0.00667    
H           -112.25218  2.39043     0.0075      
C           -111.85612  1.38231     0.00432     
C           -112.04877  -0.97841    -0.00306    
C           -112.71353  0.2621      0.00081     
C           -117.67162  4.94936     3.79148     
C           -117.72814  5.81777     5.04866     
C           -117.78467  6.68617     6.30584     
C           -117.84118  7.55459     7.56303     
C           -117.56412  5.33937     1.66733     
C           -117.51313  6.59779     0.80036     
C           -117.67164  4.97131     -3.7624     
C           -117.72817  5.847       -5.01452    
C           -117.78469  6.7227      -6.26664    
C           -117.84121  7.59839     -7.51876    
C           -117.55761  2.84474     -3.3877     
C           -117.5001   1.59387     -4.26512    
C           -101.96007  0.4169      0.00122     
C           -102.67133  1.61189     0.00457     
S           -103.07189  -0.96728    -0.00259    
C           -106.40434  1.27863     0.00368     
C           -105.86754  -0.00092    0.00013     
C           -105.29944  2.33516     0.00661     
C           -104.06674  1.43083     0.00409     
C           -104.43323  0.09228     0.00037     
C           -105.35655  3.21975     -1.2586     
C           -105.35654  3.21271     1.27667     
H           -108.41741  2.17526     0.00602     
C           -105.41306  4.0813      2.53375     
H           -105.39288  2.31569     1.89484     
H           -105.3202   4.10974     0.65851     
H           -102.1866   2.58164     0.00722     
H           -105.39755  4.11156     -0.63322    
H           -105.31555  2.32794     -1.88397    
C           -105.41307  4.09528     -2.51083    
S           -107.07974  -1.22761    -0.0033     
C           -107.81188  1.27606     0.00361     
C           -108.36168  0.0         0.0         
C           -97.61637   0.0         0.0         
C           -98.2814    1.24064     0.00371     
C           -98.47394   -1.12007    -0.00335    
F           -97.54364   2.37871     0.00713     
F           -100.58468  -2.11624    -0.00634    
H           -98.07775   -2.12812    -0.00638    
H           -100.05013  2.39043     0.00718     
C           -99.65407   1.38231     0.00414     
C           -99.84673   -0.97841    -0.00293    
C           -100.51149  0.2621      0.00078     
C           -105.46958  4.94987     3.79081     
C           -105.5261   5.81844     5.04788     
C           -105.58262  6.68702     6.30495     
C           -105.63913  7.5556      7.56202     
C           -105.36208  5.3396      1.66661     
C           -105.31109  6.5979      0.79948     
C           -105.4696   4.9708      -3.76307    
C           -105.52612  5.84633     -5.01531    
C           -105.58264  6.72186     -6.26755    
C           -105.63917  7.59738     -7.51978    
C           -105.35556  2.84429     -3.38808    
C           -105.29805  1.5933      -4.26533    
C           -89.75802   0.4169      0.00122     
C           -90.46928   1.61189     0.00457     
S           -90.86985   -0.96728    -0.00259    
C           -94.20229   1.27863     0.00368     
C           -93.6655    -0.00092    0.00013     
C           -93.09739   2.33516     0.00661     
C           -91.86469   1.43083     0.00409     
C           -92.23119   0.09228     0.00037     
C           -93.1545    3.21975     -1.2586     
C           -93.1545    3.21271     1.27667     
H           -96.21536   2.17526     0.00602     
C           -93.21101   4.0813      2.53375     
H           -93.19084   2.31569     1.89484     
H           -93.11815   4.10974     0.65851     
H           -89.98456   2.58164     0.00722     
H           -93.1955    4.11156     -0.63322    
H           -93.1135    2.32794     -1.88397    
C           -93.21102   4.09528     -2.51083    
S           -94.87769   -1.22761    -0.0033     
C           -95.60984   1.27606     0.00361     
C           -96.15964   0.0         0.0         
C           -85.41432   0.0         0.0         
C           -86.07935   1.24064     0.00371     
C           -86.2719    -1.12007    -0.00335    
F           -85.34159   2.37871     0.00713     
F           -88.38263   -2.11624    -0.00634    
H           -85.87571   -2.12812    -0.00638    
H           -87.84809   2.39043     0.00718     
C           -87.45203   1.38231     0.00414     
C           -87.64468   -0.97841    -0.00293    
C           -88.30944   0.2621      0.00078     
C           -93.26753   4.94987     3.79081     
C           -93.32405   5.81844     5.04788     
C           -93.38057   6.68702     6.30495     
C           -93.43708   7.5556      7.56202     
C           -93.16003   5.3396      1.66661     
C           -93.10904   6.5979      0.79948     
C           -93.26755   4.9708      -3.76307    
C           -93.32407   5.84633     -5.01531    
C           -93.3806    6.72186     -6.26755    
C           -93.43712   7.59738     -7.51978    
C           -93.15351   2.84429     -3.38808    
C           -93.096     1.5933      -4.26533    
C           -77.55598   0.4169      0.00122     
C           -78.26724   1.61189     0.00457     
S           -78.6678    -0.96728    -0.00259    
C           -82.00024   1.27863     0.00368     
C           -81.46345   -0.00092    0.00013     
C           -80.89535   2.33516     0.00661     
C           -79.66264   1.43083     0.00409     
C           -80.02914   0.09228     0.00037     
C           -80.95245   3.21975     -1.2586     
C           -80.95245   3.21271     1.27667     
H           -84.01331   2.17526     0.00602     
C           -81.00896   4.0813      2.53375     
H           -80.98879   2.31569     1.89484     
H           -80.9161    4.10974     0.65851     
H           -77.78251   2.58164     0.00722     
H           -80.99345   4.11156     -0.63322    
H           -80.91146   2.32794     -1.88397    
C           -81.00898   4.09528     -2.51083    
S           -82.67564   -1.22761    -0.0033     
C           -83.40779   1.27606     0.00361     
C           -83.95759   0.0         0.0         
C           -73.21228   0.0         0.0         
C           -73.8773    1.24064     0.00371     
C           -74.06985   -1.12007    -0.00335    
F           -73.13954   2.37871     0.00713     
F           -76.18059   -2.11624    -0.00634    
H           -73.67366   -2.12812    -0.00638    
H           -75.64604   2.39043     0.00718     
C           -75.24998   1.38231     0.00414     
C           -75.44264   -0.97841    -0.00293    
C           -76.10739   0.2621      0.00078     
C           -81.06548   4.94987     3.79081     
C           -81.12201   5.81844     5.04788     
C           -81.17853   6.68702     6.30495     
C           -81.23504   7.5556      7.56202     
C           -80.95798   5.3396      1.66661     
C           -80.90699   6.5979      0.79948     
C           -81.0655    4.9708      -3.76307    
C           -81.12203   5.84633     -5.01531    
C           -81.17855   6.72186     -6.26755    
C           -81.23507   7.59738     -7.51978    
C           -80.95147   2.84429     -3.38808    
C           -80.89396   1.5933      -4.26533    
C           -65.35393   0.4169      0.00122     
C           -66.06519   1.61189     0.00457     
S           -66.46575   -0.96728    -0.00259    
C           -69.7982    1.27863     0.00368     
C           -69.26141   -0.00092    0.00013     
C           -68.6933    2.33516     0.00661     
C           -67.4606    1.43083     0.00409     
C           -67.8271    0.09228     0.00037     
C           -68.75041   3.21975     -1.2586     
C           -68.75041   3.21271     1.27667     
H           -71.81127   2.17526     0.00602     
C           -68.80692   4.0813      2.53375     
H           -68.78674   2.31569     1.89484     
H           -68.71406   4.10974     0.65851     
H           -65.58046   2.58164     0.00722     
H           -68.79141   4.11156     -0.63322    
H           -68.70941   2.32794     -1.88397    
C           -68.80693   4.09528     -2.51083    
S           -70.4736    -1.22761    -0.0033     
C           -71.20574   1.27606     0.00361     
C           -71.75555   0.0         0.0         
C           -61.01023   0.0         0.0         
C           -61.67526   1.24064     0.00371     
C           -61.8678    -1.12007    -0.00335    
F           -60.9375    2.37871     0.00713     
F           -63.97854   -2.11624    -0.00634    
H           -61.47161   -2.12812    -0.00638    
H           -63.44399   2.39043     0.00718     
C           -63.04793   1.38231     0.00414     
C           -63.24059   -0.97841    -0.00293    
C           -63.90535   0.2621      0.00078     
C           -68.86344   4.94987     3.79081     
C           -68.91996   5.81844     5.04788     
C           -68.97648   6.68702     6.30495     
C           -69.03299   7.5556      7.56202     
C           -68.75594   5.3396      1.66661     
C           -68.70495   6.5979      0.79948     
C           -68.86346   4.9708      -3.76307    
C           -68.91998   5.84633     -5.01531    
C           -68.9765    6.72186     -6.26755    
C           -69.03303   7.59738     -7.51978    
C           -68.74942   2.84429     -3.38808    
C           -68.69191   1.5933      -4.26533    
C           -53.15188   0.4169      0.00122     
C           -53.86314   1.61189     0.00457     
S           -54.26371   -0.96728    -0.00259    
C           -57.59615   1.27863     0.00368     
C           -57.05936   -0.00092    0.00013     
C           -56.49125   2.33516     0.00661     
C           -55.25855   1.43083     0.00409     
C           -55.62505   0.09228     0.00037     
C           -56.54836   3.21975     -1.2586     
C           -56.54836   3.21271     1.27667     
H           -59.60922   2.17526     0.00602     
C           -56.60487   4.0813      2.53375     
H           -56.5847    2.31569     1.89484     
H           -56.51201   4.10974     0.65851     
H           -53.37842   2.58164     0.00722     
H           -56.58936   4.11156     -0.63322    
H           -56.50736   2.32794     -1.88397    
C           -56.60489   4.09528     -2.51083    
S           -58.27155   -1.22761    -0.0033     
C           -59.0037    1.27606     0.00361     
C           -59.5535    0.0         0.0         
C           -48.80819   0.0         0.0         
C           -49.47321   1.24064     0.00371     
C           -49.66576   -1.12007    -0.00335    
F           -48.73545   2.37871     0.00713     
F           -51.77649   -2.11624    -0.00634    
H           -49.26957   -2.12812    -0.00638    
H           -51.24195   2.39043     0.00718     
C           -50.84589   1.38231     0.00414     
C           -51.03854   -0.97841    -0.00293    
C           -51.7033    0.2621      0.00078     
C           -56.66139   4.94987     3.79081     
C           -56.71791   5.81844     5.04788     
C           -56.77443   6.68702     6.30495     
C           -56.83095   7.5556      7.56202     
C           -56.55389   5.3396      1.66661     
C           -56.5029    6.5979      0.79948     
C           -56.66141   4.9708      -3.76307    
C           -56.71793   5.84633     -5.01531    
C           -56.77446   6.72186     -6.26755    
C           -56.83098   7.59738     -7.51978    
C           -56.54737   2.84429     -3.38808    
C           -56.48986   1.5933      -4.26533    
C           -40.94984   0.4169      0.00122     
C           -41.6611    1.61189     0.00457     
S           -42.06166   -0.96728    -0.00259    
C           -45.3941    1.27863     0.00368     
C           -44.85731   -0.00092    0.00013     
C           -44.28921   2.33516     0.00661     
C           -43.0565    1.43083     0.00409     
C           -43.423     0.09228     0.00037     
C           -44.34632   3.21975     -1.2586     
C           -44.34631   3.21271     1.27667     
H           -47.40717   2.17526     0.00602     
C           -44.40282   4.0813      2.53375     
H           -44.38265   2.31569     1.89484     
H           -44.30996   4.10974     0.65851     
H           -41.17637   2.58164     0.00722     
H           -44.38731   4.11156     -0.63322    
H           -44.30532   2.32794     -1.88397    
C           -44.40284   4.09528     -2.51083    
S           -46.0695    -1.22761    -0.0033     
C           -46.80165   1.27606     0.00361     
C           -47.35145   0.0         0.0         
C           -36.60614   0.0         0.0         
C           -37.27116   1.24064     0.00371     
C           -37.46371   -1.12007    -0.00335    
F           -36.5334    2.37871     0.00713     
F           -39.57445   -2.11624    -0.00634    
H           -37.06752   -2.12812    -0.00638    
H           -39.0399    2.39043     0.00718     
C           -38.64384   1.38231     0.00414     
C           -38.8365    -0.97841    -0.00293    
C           -39.50125   0.2621      0.00078     
C           -44.45935   4.94987     3.79081     
C           -44.51587   5.81844     5.04788     
C           -44.57239   6.68702     6.30495     
C           -44.6289    7.5556      7.56202     
C           -44.35185   5.3396      1.66661     
C           -44.30086   6.5979      0.79948     
C           -44.45936   4.9708      -3.76307    
C           -44.51589   5.84633     -5.01531    
C           -44.57241   6.72186     -6.26755    
C           -44.62893   7.59738     -7.51978    
C           -44.34533   2.84429     -3.38808    
C           -44.28782   1.5933      -4.26533    
C           -28.74779   0.4169      0.00122     
C           -29.45905   1.61189     0.00457     
S           -29.85961   -0.96728    -0.00259    
C           -33.19206   1.27863     0.00368     
C           -32.65527   -0.00092    0.00013     
C           -32.08716   2.33516     0.00661     
C           -30.85446   1.43083     0.00409     
C           -31.22096   0.09228     0.00037     
C           -32.14427   3.21975     -1.2586     
C           -32.14427   3.21271     1.27667     
H           -35.20513   2.17526     0.00602     
C           -32.20078   4.0813      2.53375     
H           -32.18061   2.31569     1.89484     
H           -32.10792   4.10974     0.65851     
H           -28.97432   2.58164     0.00722     
H           -32.18527   4.11156     -0.63322    
H           -32.10327   2.32794     -1.88397    
C           -32.20079   4.09528     -2.51083    
S           -33.86746   -1.22761    -0.0033     
C           -34.5996    1.27606     0.00361     
C           -35.14941   0.0         0.0         
C           -24.40409   0.0         0.0         
C           -25.06912   1.24064     0.00371     
C           -25.26166   -1.12007    -0.00335    
F           -24.33136   2.37871     0.00713     
F           -27.3724    -2.11624    -0.00634    
H           -24.86548   -2.12812    -0.00638    
H           -26.83786   2.39043     0.00718     
C           -26.44179   1.38231     0.00414     
C           -26.63445   -0.97841    -0.00293    
C           -27.29921   0.2621      0.00078     
C           -32.2573    4.94987     3.79081     
C           -32.31382   5.81844     5.04788     
C           -32.37034   6.68702     6.30495     
C           -32.42685   7.5556      7.56202     
C           -32.1498    5.3396      1.66661     
C           -32.09881   6.5979      0.79948     
C           -32.25732   4.9708      -3.76307    
C           -32.31384   5.84633     -5.01531    
C           -32.37036   6.72186     -6.26755    
C           -32.42689   7.59738     -7.51978    
C           -32.14328   2.84429     -3.38808    
C           -32.08577   1.5933      -4.26533    
C           -16.54575   0.4169      0.00122     
C           -17.257     1.61189     0.00457     
S           -17.65757   -0.96728    -0.00259    
C           -20.99001   1.27863     0.00368     
C           -20.45322   -0.00092    0.00013     
C           -19.88511   2.33516     0.00661     
C           -18.65241   1.43083     0.00409     
C           -19.01891   0.09228     0.00037     
C           -19.94222   3.21975     -1.2586     
C           -19.94222   3.21271     1.27667     
H           -23.00308   2.17526     0.00602     
C           -19.99873   4.0813      2.53375     
H           -19.97856   2.31569     1.89484     
H           -19.90587   4.10974     0.65851     
H           -16.77228   2.58164     0.00722     
H           -19.98322   4.11156     -0.63322    
H           -19.90122   2.32794     -1.88397    
C           -19.99875   4.09528     -2.51083    
S           -21.66541   -1.22761    -0.0033     
C           -22.39756   1.27606     0.00361     
C           -22.94736   0.0         0.0         
C           -12.20205   0.0         0.0         
C           -12.86707   1.24064     0.00371     
C           -13.05962   -1.12007    -0.00335    
F           -12.12931   2.37871     0.00713     
F           -15.17036   -2.11624    -0.00634    
H           -12.66343   -2.12812    -0.00638    
H           -14.63581   2.39043     0.00718     
C           -14.23975   1.38231     0.00414     
C           -14.4324    -0.97841    -0.00293    
C           -15.09716   0.2621      0.00078     
C           -20.05525   4.94987     3.79081     
C           -20.11177   5.81844     5.04788     
C           -20.1683    6.68702     6.30495     
C           -20.22481   7.5556      7.56202     
C           -19.94775   5.3396      1.66661     
C           -19.89676   6.5979      0.79948     
C           -20.05527   4.9708      -3.76307    
C           -20.11179   5.84633     -5.01531    
C           -20.16832   6.72186     -6.26755    
C           -20.22484   7.59738     -7.51978    
C           -19.94124   2.84429     -3.38808    
C           -19.88372   1.5933      -4.26533    
C           -4.3437     0.4169      0.00122     
C           -5.05496    1.61189     0.00457     
S           -5.45552    -0.96728    -0.00259    
C           -8.78797    1.27863     0.00368     
C           -8.25117    -0.00092    0.00013     
C           -7.68307    2.33516     0.00661     
C           -6.45037    1.43083     0.00409     
C           -6.81686    0.09228     0.00037     
C           -7.74018    3.21975     -1.2586     
C           -7.74017    3.21271     1.27667     
H           -10.80104   2.17526     0.00602     
C           -7.79669    4.0813      2.53375     
H           -7.77651    2.31569     1.89484     
H           -7.70383    4.10974     0.65851     
H           -4.57023    2.58164     0.00722     
H           -7.78118    4.11156     -0.63322    
H           -7.69918    2.32794     -1.88397    
C           -7.7967     4.09528     -2.51083    
S           -9.46336    -1.22761    -0.0033     
C           -10.19551   1.27606     0.00361     
C           -10.74531   0.0         0.0         
C           0.0         0.0         0.0         
C           -0.66502    1.24064     0.00371     
C           -0.85757    -1.12007    -0.00335    
F           0.07273     2.37871     0.00713     
F           -2.96831    -2.11624    -0.00634    
H           -0.46138    -2.12812    -0.00638    
H           -2.43376    2.39043     0.00718     
C           -2.0377     1.38231     0.00414     
C           -2.23036    -0.97841    -0.00293    
C           -2.89512    0.2621      0.00078     
C           -7.85321    4.94987     3.79081     
C           -7.90973    5.81844     5.04788     
C           -7.96625    6.68702     6.30495     
C           -8.02276    7.5556      7.56202     
C           -7.74571    5.3396      1.66661     
C           -7.69472    6.5979      0.79948     
C           -7.85322    4.9708      -3.76307    
C           -7.90975    5.84633     -5.01531    
C           -7.96627    6.72186     -6.26755    
C           -8.0228     7.59738     -7.51978    
C           -7.73919    2.84429     -3.38808    
C           -7.68168    1.5933      -4.26533    
H           -121.65373  0.0         0.0         
H           1.09        0.0         0.0         
