11
TCNCN.log
C         -1.24000        1.07000       -0.00000
C         -0.72000       -0.21000        0.00000
S         -0.00000        2.27000       -0.00000
N          2.20000       -2.33000        0.00000
N         -2.20000       -2.33000        0.00000
C         -1.53000       -1.38000        0.00000
C          1.53000       -1.38000        0.00000
C          0.72000       -0.21000        0.00000
C          1.24000        1.07000       -0.00000
H          2.28000        1.35000       -0.00000
H         -2.28000        1.35000       -0.00000
