742

C           -160.74396  -0.74005    -0.00291    
C           -161.42682  0.47336     0.00187     
S           -161.87037  -2.12527    -0.00836    
C           -162.82052  0.29042     0.00115     
C           -163.22409  -1.04407    -0.00411    
F           -165.22812  -2.39169    -0.00943    
H           -160.90606  1.427       0.00564     
S           -164.19728  1.37032     0.00541     
C           -164.62503  -1.19029    -0.00469    
C           -165.32457  0.0         -0.0        
C           -156.14006  0.70695     0.00264     
C           -157.06758  -0.34557    -0.00141    
N           -156.89024  1.89054     0.0073      
C           -158.29698  1.62025     0.00631     
C           -157.16886  -1.79254    -0.00703    
O           -156.34216  -2.69761    -0.01052    
O           -159.14676  2.51043     0.00987     
C           -159.05988  -3.41675    -0.01334    
C           -156.4701   3.28485     0.01305     
C           -156.02898  4.74883     0.01909     
H           -156.76859  3.37049     1.05788     
H           -156.17162  3.19923     -1.03179    
H           -158.72631  -3.52876    -1.04498    
C           -159.56217  -4.86088    -0.01895    
H           -159.39345  -3.30473    1.0183      
N           -158.58284  -2.04522    -0.00802    
C           -158.38348  0.18216     0.00067     
C           -159.31295  -0.86093    -0.00338    
C           -150.08819  0.0         -0.0        
C           -151.07626  -0.96935    -0.00307    
S           -150.7655   1.64556     0.00529     
C           -152.37339  -0.40688    -0.00118    
C           -152.37577  0.98297     0.00328     
F           -153.81378  2.86307     0.00922     
H           -150.86693  -2.03292    -0.00649    
S           -153.98459  -1.05499    -0.00326    
C           -153.66747  1.52819     0.00506     
C           -154.70194  0.59205     0.00214     
C           -155.58785  6.2128      0.02513     
C           -155.14672  7.67678     0.03117     
C           -154.70559  9.14075     0.0372      
C           -154.26447  10.60471    0.04324     
C           -153.82334  12.06868    0.04928     
C           -153.38221  13.53266    0.05532     
C           -152.94108  14.99663    0.06135     
C           -152.49996  16.46059    0.06739     
C           -152.05883  17.92457    0.07343     
C           -151.6177   19.38854    0.07947     
C           -156.44768  4.86895     1.48472     
C           -156.86638  4.98907     2.95037     
C           -157.28507  5.10919     4.41601     
C           -157.70378  5.22931     5.88165     
C           -158.12248  5.34943     7.34729     
C           -158.54118  5.46954     8.81293     
C           -158.95988  5.58966     10.27857    
C           -159.37858  5.70978     11.74421    
C           -160.06446  -6.30501    -0.02456    
C           -160.56675  -7.74914    -0.03016    
C           -161.06904  -9.19327    -0.03577    
C           -161.57133  -10.6374    -0.04138    
C           -162.07362  -12.08153   -0.04698    
C           -162.57592  -13.52566   -0.05259    
C           -163.07821  -14.96979   -0.0582     
C           -163.5805   -16.41392   -0.0638     
C           -164.08279  -17.85805   -0.06941    
C           -164.58508  -19.30218   -0.07502    
C           -159.09425  -5.01801    -1.46609    
C           -158.62633  -5.17514    -2.91322    
C           -158.15841  -5.33227    -4.36036    
C           -157.69049  -5.4894     -5.80749    
C           -157.22257  -5.64653    -7.25463    
C           -156.75466  -5.80366    -8.70177    
C           -156.28674  -5.9608     -10.1489    
C           -155.81882  -6.11793    -11.59604   
C           -144.06749  -0.74006    -0.00216    
C           -144.75035  0.47336     0.00139     
S           -145.19391  -2.12528    -0.00621    
C           -146.14405  0.29042     0.00086     
C           -146.54762  -1.04407    -0.00306    
F           -148.55166  -2.3917     -0.00701    
H           -144.22959  1.42701     0.00419     
S           -147.52081  1.37033     0.00402     
C           -147.94857  -1.19029    -0.00348    
C           -148.64811  0.0         -0.0        
C           -139.4636   0.70695     0.00192     
C           -140.39112  -0.34557    -0.00106    
N           -140.21378  1.89055     0.00538     
C           -141.62051  1.62025     0.00467     
C           -140.49239  -1.79255    -0.00522    
O           -139.6657   -2.69762    -0.00778    
O           -142.47029  2.51044     0.00733     
C           -142.38341  -3.41676    -0.00988    
C           -139.79364  3.28487     0.00972     
C           -139.35252  4.74885     0.01428     
H           -140.09212  3.37156     1.05447     
H           -139.49516  3.19818     -1.03503    
H           -142.04984  -3.52982    -1.04141    
C           -142.8857   -4.86089    -0.01403    
H           -142.71698  -3.3037     1.02164     
N           -141.90637  -2.04523    -0.00595    
C           -141.70702  0.18216     0.00049     
C           -142.63648  -0.86093    -0.00251    
C           -133.41172  0.0         -0.0        
C           -134.39979  -0.96936    -0.00208    
S           -134.08903  1.64557     0.00362     
C           -135.69693  -0.40688    -0.00077    
C           -135.69931  0.98298     0.00228     
F           -137.13732  2.86308     0.00632     
H           -134.19046  -2.03293    -0.00443    
S           -137.30812  -1.05499    -0.00219    
C           -136.99101  1.52819     0.00351     
C           -138.02547  0.59205     0.00154     
C           -138.91138  6.21282     0.01883     
C           -138.47026  7.6768      0.02339     
C           -138.02913  9.14078     0.02794     
C           -137.58801  10.60475    0.0325      
C           -137.14687  12.06873    0.03705     
C           -136.70574  13.5327     0.04161     
C           -136.26462  14.99668    0.04616     
C           -135.82349  16.46065    0.05072     
C           -135.38237  17.92463    0.05527     
C           -134.94123  19.38861    0.05983     
C           -139.77121  4.87045     1.47979     
C           -140.18992  4.99206     2.94531     
C           -140.60861  5.11366     4.41083     
C           -141.02731  5.23526     5.87635     
C           -141.44601  5.35687     7.34187     
C           -141.86472  5.47847     8.80738     
C           -142.28342  5.60007     10.2729     
C           -142.70211  5.72167     11.73842    
C           -143.38799  -6.30503    -0.01817    
C           -143.89029  -7.74916    -0.02231    
C           -144.39258  -9.1933     -0.02646    
C           -144.89487  -10.63744   -0.0306     
C           -145.39716  -12.08157   -0.03474    
C           -145.89945  -13.52571   -0.03889    
C           -146.40174  -14.96984   -0.04303    
C           -146.90403  -16.41398   -0.04717    
C           -147.40632  -17.85811   -0.05132    
C           -147.90862  -19.30225   -0.05546    
C           -142.41778  -5.01949    -1.461      
C           -141.94987  -5.17809    -2.90798    
C           -141.48195  -5.33668    -4.35495    
C           -141.01403  -5.49528    -5.80193    
C           -140.54611  -5.65388    -7.24891    
C           -140.07819  -5.81248    -8.69588    
C           -139.61027  -5.97107    -10.14286   
C           -139.14235  -6.12967    -11.58984   
C           -127.39103  -0.74006    -0.00216    
C           -128.07389  0.47336     0.00139     
S           -128.51744  -2.12528    -0.00621    
C           -129.46759  0.29042     0.00086     
C           -129.87116  -1.04407    -0.00306    
F           -131.87519  -2.3917     -0.00701    
H           -127.55313  1.42701     0.00419     
S           -130.84435  1.37033     0.00402     
C           -131.2721   -1.19029    -0.00348    
C           -131.97164  0.0         -0.0        
C           -122.78713  0.70695     0.00192     
C           -123.71465  -0.34557    -0.00106    
N           -123.53731  1.89055     0.00538     
C           -124.94405  1.62025     0.00467     
C           -123.81593  -1.79255    -0.00522    
O           -122.98923  -2.69762    -0.00778    
O           -125.79383  2.51044     0.00733     
C           -125.70695  -3.41676    -0.00988    
C           -123.11717  3.28487     0.00972     
C           -122.67605  4.74885     0.01428     
H           -123.41566  3.37156     1.05447     
H           -122.81869  3.19818     -1.03503    
H           -125.37338  -3.52982    -1.04141    
C           -126.20924  -4.86089    -0.01403    
H           -126.04052  -3.3037     1.02164     
N           -125.22991  -2.04523    -0.00595    
C           -125.03055  0.18216     0.00049     
C           -125.96002  -0.86093    -0.00251    
C           -116.73526  0.0         -0.0        
C           -117.72333  -0.96936    -0.00208    
S           -117.41257  1.64557     0.00362     
C           -119.02046  -0.40688    -0.00077    
C           -119.02284  0.98298     0.00228     
F           -120.46085  2.86308     0.00632     
H           -117.514    -2.03293    -0.00443    
S           -120.63166  -1.05499    -0.00219    
C           -120.31454  1.52819     0.00351     
C           -121.34901  0.59205     0.00154     
C           -122.23492  6.21282     0.01883     
C           -121.79379  7.6768      0.02339     
C           -121.35266  9.14078     0.02794     
C           -120.91154  10.60475    0.0325      
C           -120.47041  12.06873    0.03705     
C           -120.02928  13.5327     0.04161     
C           -119.58815  14.99668    0.04616     
C           -119.14703  16.46065    0.05072     
C           -118.7059   17.92463    0.05527     
C           -118.26477  19.38861    0.05983     
C           -123.09475  4.87045     1.47979     
C           -123.51345  4.99206     2.94531     
C           -123.93214  5.11366     4.41083     
C           -124.35085  5.23526     5.87635     
C           -124.76955  5.35687     7.34187     
C           -125.18825  5.47847     8.80738     
C           -125.60695  5.60007     10.2729     
C           -126.02565  5.72167     11.73842    
C           -126.71153  -6.30503    -0.01817    
C           -127.21382  -7.74916    -0.02231    
C           -127.71611  -9.1933     -0.02646    
C           -128.2184   -10.63744   -0.0306     
C           -128.72069  -12.08157   -0.03474    
C           -129.22299  -13.52571   -0.03889    
C           -129.72528  -14.96984   -0.04303    
C           -130.22757  -16.41398   -0.04717    
C           -130.72986  -17.85811   -0.05132    
C           -131.23215  -19.30225   -0.05546    
C           -125.74132  -5.01949    -1.461      
C           -125.2734   -5.17809    -2.90798    
C           -124.80548  -5.33668    -4.35495    
C           -124.33756  -5.49528    -5.80193    
C           -123.86964  -5.65388    -7.24891    
C           -123.40173  -5.81248    -8.69588    
C           -122.93381  -5.97107    -10.14286   
C           -122.46589  -6.12967    -11.58984   
C           -110.71456  -0.74006    -0.00216    
C           -111.39742  0.47336     0.00139     
S           -111.84098  -2.12528    -0.00621    
C           -112.79112  0.29042     0.00086     
C           -113.19469  -1.04407    -0.00306    
F           -115.19873  -2.3917     -0.00701    
H           -110.87666  1.42701     0.00419     
S           -114.16788  1.37033     0.00402     
C           -114.59564  -1.19029    -0.00348    
C           -115.29518  0.0         -0.0        
C           -106.11067  0.70695     0.00192     
C           -107.03819  -0.34557    -0.00106    
N           -106.86085  1.89055     0.00538     
C           -108.26758  1.62025     0.00467     
C           -107.13946  -1.79255    -0.00522    
O           -106.31277  -2.69762    -0.00778    
O           -109.11736  2.51044     0.00733     
C           -109.03048  -3.41676    -0.00988    
C           -106.44071  3.28487     0.00972     
C           -105.99958  4.74885     0.01428     
H           -106.73919  3.37156     1.05447     
H           -106.14223  3.19818     -1.03503    
H           -108.69691  -3.52982    -1.04141    
C           -109.53277  -4.86089    -0.01403    
H           -109.36405  -3.3037     1.02164     
N           -108.55344  -2.04523    -0.00595    
C           -108.35409  0.18216     0.00049     
C           -109.28355  -0.86093    -0.00251    
C           -100.05879  0.0         -0.0        
C           -101.04686  -0.96936    -0.00208    
S           -100.7361   1.64557     0.00362     
C           -102.344    -0.40688    -0.00077    
C           -102.34638  0.98298     0.00228     
F           -103.78439  2.86308     0.00632     
H           -100.83753  -2.03293    -0.00443    
S           -103.95519  -1.05499    -0.00219    
C           -103.63808  1.52819     0.00351     
C           -104.67254  0.59205     0.00154     
C           -105.55845  6.21282     0.01883     
C           -105.11733  7.6768      0.02339     
C           -104.6762   9.14078     0.02794     
C           -104.23508  10.60475    0.0325      
C           -103.79394  12.06873    0.03705     
C           -103.35281  13.5327     0.04161     
C           -102.91169  14.99668    0.04616     
C           -102.47056  16.46065    0.05072     
C           -102.02944  17.92463    0.05527     
C           -101.5883   19.38861    0.05983     
C           -106.41828  4.87045     1.47979     
C           -106.83699  4.99206     2.94531     
C           -107.25568  5.11366     4.41083     
C           -107.67438  5.23526     5.87635     
C           -108.09308  5.35687     7.34187     
C           -108.51179  5.47847     8.80738     
C           -108.93049  5.60007     10.2729     
C           -109.34918  5.72167     11.73842    
C           -110.03506  -6.30503    -0.01817    
C           -110.53736  -7.74916    -0.02231    
C           -111.03965  -9.1933     -0.02646    
C           -111.54194  -10.63744   -0.0306     
C           -112.04423  -12.08157   -0.03474    
C           -112.54652  -13.52571   -0.03889    
C           -113.04881  -14.96984   -0.04303    
C           -113.5511   -16.41398   -0.04717    
C           -114.05339  -17.85811   -0.05132    
C           -114.55569  -19.30225   -0.05546    
C           -109.06485  -5.01949    -1.461      
C           -108.59694  -5.17809    -2.90798    
C           -108.12902  -5.33668    -4.35495    
C           -107.6611   -5.49528    -5.80193    
C           -107.19318  -5.65388    -7.24891    
C           -106.72526  -5.81248    -8.69588    
C           -106.25734  -5.97107    -10.14286   
C           -105.78942  -6.12967    -11.58984   
C           -94.0381    -0.74006    -0.00216    
C           -94.72096   0.47336     0.00139     
S           -95.16451   -2.12528    -0.00621    
C           -96.11466   0.29042     0.00086     
C           -96.51823   -1.04407    -0.00306    
F           -98.52226   -2.3917     -0.00701    
H           -94.2002    1.42701     0.00419     
S           -97.49142   1.37033     0.00402     
C           -97.91917   -1.19029    -0.00348    
C           -98.61871   0.0         -0.0        
C           -89.4342    0.70695     0.00192     
C           -90.36172   -0.34557    -0.00106    
N           -90.18438   1.89055     0.00538     
C           -91.59112   1.62025     0.00467     
C           -90.463     -1.79255    -0.00522    
O           -89.6363    -2.69762    -0.00778    
O           -92.4409    2.51044     0.00733     
C           -92.35402   -3.41676    -0.00988    
C           -89.76424   3.28487     0.00972     
C           -89.32312   4.74885     0.01428     
H           -90.06273   3.37156     1.05447     
H           -89.46576   3.19818     -1.03503    
H           -92.02044   -3.52982    -1.04141    
C           -92.85631   -4.86089    -0.01403    
H           -92.68759   -3.3037     1.02164     
N           -91.87698   -2.04523    -0.00595    
C           -91.67762   0.18216     0.00049     
C           -92.60709   -0.86093    -0.00251    
C           -83.38233   0.0         -0.0        
C           -84.3704    -0.96936    -0.00208    
S           -84.05964   1.64557     0.00362     
C           -85.66753   -0.40688    -0.00077    
C           -85.66991   0.98298     0.00228     
F           -87.10792   2.86308     0.00632     
H           -84.16107   -2.03293    -0.00443    
S           -87.27873   -1.05499    -0.00219    
C           -86.96161   1.52819     0.00351     
C           -87.99608   0.59205     0.00154     
C           -88.88199   6.21282     0.01883     
C           -88.44086   7.6768      0.02339     
C           -87.99973   9.14078     0.02794     
C           -87.55861   10.60475    0.0325      
C           -87.11748   12.06873    0.03705     
C           -86.67635   13.5327     0.04161     
C           -86.23522   14.99668    0.04616     
C           -85.7941    16.46065    0.05072     
C           -85.35297   17.92463    0.05527     
C           -84.91184   19.38861    0.05983     
C           -89.74182   4.87045     1.47979     
C           -90.16052   4.99206     2.94531     
C           -90.57921   5.11366     4.41083     
C           -90.99792   5.23526     5.87635     
C           -91.41662   5.35687     7.34187     
C           -91.83532   5.47847     8.80738     
C           -92.25402   5.60007     10.2729     
C           -92.67272   5.72167     11.73842    
C           -93.3586    -6.30503    -0.01817    
C           -93.86089   -7.74916    -0.02231    
C           -94.36318   -9.1933     -0.02646    
C           -94.86547   -10.63744   -0.0306     
C           -95.36776   -12.08157   -0.03474    
C           -95.87006   -13.52571   -0.03889    
C           -96.37235   -14.96984   -0.04303    
C           -96.87464   -16.41398   -0.04717    
C           -97.37693   -17.85811   -0.05132    
C           -97.87922   -19.30225   -0.05546    
C           -92.38839   -5.01949    -1.461      
C           -91.92047   -5.17809    -2.90798    
C           -91.45255   -5.33668    -4.35495    
C           -90.98463   -5.49528    -5.80193    
C           -90.51671   -5.65388    -7.24891    
C           -90.0488    -5.81248    -8.69588    
C           -89.58088   -5.97107    -10.14286   
C           -89.11296   -6.12967    -11.58984   
C           -77.36163   -0.74006    -0.00216    
C           -78.04449   0.47336     0.00139     
S           -78.48805   -2.12528    -0.00621    
C           -79.43819   0.29042     0.00086     
C           -79.84176   -1.04407    -0.00306    
F           -81.8458    -2.3917     -0.00701    
H           -77.52373   1.42701     0.00419     
S           -80.81495   1.37033     0.00402     
C           -81.24271   -1.19029    -0.00348    
C           -81.94225   0.0         -0.0        
C           -72.75774   0.70695     0.00192     
C           -73.68526   -0.34557    -0.00106    
N           -73.50792   1.89055     0.00538     
C           -74.91465   1.62025     0.00467     
C           -73.78653   -1.79255    -0.00522    
O           -72.95984   -2.69762    -0.00778    
O           -75.76443   2.51044     0.00733     
C           -75.67755   -3.41676    -0.00988    
C           -73.08778   3.28487     0.00972     
C           -72.64665   4.74885     0.01428     
H           -73.38626   3.37156     1.05447     
H           -72.78929   3.19818     -1.03503    
H           -75.34398   -3.52982    -1.04141    
C           -76.17984   -4.86089    -0.01403    
H           -76.01112   -3.3037     1.02164     
N           -75.20051   -2.04523    -0.00595    
C           -75.00116   0.18216     0.00049     
C           -75.93062   -0.86093    -0.00251    
C           -66.70586   0.0         -0.0        
C           -67.69393   -0.96936    -0.00208    
S           -67.38317   1.64557     0.00362     
C           -68.99107   -0.40688    -0.00077    
C           -68.99345   0.98298     0.00228     
F           -70.43145   2.86308     0.00632     
H           -67.4846    -2.03293    -0.00443    
S           -70.60226   -1.05499    -0.00219    
C           -70.28515   1.52819     0.00351     
C           -71.31961   0.59205     0.00154     
C           -72.20552   6.21282     0.01883     
C           -71.7644    7.6768      0.02339     
C           -71.32327   9.14078     0.02794     
C           -70.88215   10.60475    0.0325      
C           -70.44101   12.06873    0.03705     
C           -69.99988   13.5327     0.04161     
C           -69.55876   14.99668    0.04616     
C           -69.11763   16.46065    0.05072     
C           -68.67651   17.92463    0.05527     
C           -68.23537   19.38861    0.05983     
C           -73.06535   4.87045     1.47979     
C           -73.48406   4.99206     2.94531     
C           -73.90275   5.11366     4.41083     
C           -74.32145   5.23526     5.87635     
C           -74.74015   5.35687     7.34187     
C           -75.15886   5.47847     8.80738     
C           -75.57756   5.60007     10.2729     
C           -75.99625   5.72167     11.73842    
C           -76.68213   -6.30503    -0.01817    
C           -77.18443   -7.74916    -0.02231    
C           -77.68672   -9.1933     -0.02646    
C           -78.18901   -10.63744   -0.0306     
C           -78.6913    -12.08157   -0.03474    
C           -79.19359   -13.52571   -0.03889    
C           -79.69588   -14.96984   -0.04303    
C           -80.19817   -16.41398   -0.04717    
C           -80.70046   -17.85811   -0.05132    
C           -81.20275   -19.30225   -0.05546    
C           -75.71192   -5.01949    -1.461      
C           -75.24401   -5.17809    -2.90798    
C           -74.77609   -5.33668    -4.35495    
C           -74.30817   -5.49528    -5.80193    
C           -73.84025   -5.65388    -7.24891    
C           -73.37233   -5.81248    -8.69588    
C           -72.90441   -5.97107    -10.14286   
C           -72.43649   -6.12967    -11.58984   
C           -60.68517   -0.74006    -0.00216    
C           -61.36803   0.47336     0.00139     
S           -61.81158   -2.12528    -0.00621    
C           -62.76173   0.29042     0.00086     
C           -63.1653    -1.04407    -0.00306    
F           -65.16933   -2.3917     -0.00701    
H           -60.84727   1.42701     0.00419     
S           -64.13849   1.37033     0.00402     
C           -64.56624   -1.19029    -0.00348    
C           -65.26578   0.0         -0.0        
C           -56.08127   0.70695     0.00192     
C           -57.00879   -0.34557    -0.00106    
N           -56.83145   1.89055     0.00538     
C           -58.23819   1.62025     0.00467     
C           -57.11007   -1.79255    -0.00522    
O           -56.28337   -2.69762    -0.00778    
O           -59.08797   2.51044     0.00733     
C           -59.00109   -3.41676    -0.00988    
C           -56.41131   3.28487     0.00972     
C           -55.97019   4.74885     0.01428     
H           -56.7098    3.37156     1.05447     
H           -56.11283   3.19818     -1.03503    
H           -58.66751   -3.52982    -1.04141    
C           -59.50338   -4.86089    -0.01403    
H           -59.33466   -3.3037     1.02164     
N           -58.52405   -2.04523    -0.00595    
C           -58.32469   0.18216     0.00049     
C           -59.25416   -0.86093    -0.00251    
C           -50.0294    0.0         -0.0        
C           -51.01747   -0.96936    -0.00208    
S           -50.70671   1.64557     0.00362     
C           -52.3146    -0.40688    -0.00077    
C           -52.31698   0.98298     0.00228     
F           -53.75499   2.86308     0.00632     
H           -50.80814   -2.03293    -0.00443    
S           -53.9258    -1.05499    -0.00219    
C           -53.60868   1.52819     0.00351     
C           -54.64315   0.59205     0.00154     
C           -55.52906   6.21282     0.01883     
C           -55.08793   7.6768      0.02339     
C           -54.6468    9.14078     0.02794     
C           -54.20568   10.60475    0.0325      
C           -53.76455   12.06873    0.03705     
C           -53.32342   13.5327     0.04161     
C           -52.88229   14.99668    0.04616     
C           -52.44117   16.46065    0.05072     
C           -52.00004   17.92463    0.05527     
C           -51.55891   19.38861    0.05983     
C           -56.38889   4.87045     1.47979     
C           -56.80759   4.99206     2.94531     
C           -57.22628   5.11366     4.41083     
C           -57.64499   5.23526     5.87635     
C           -58.06369   5.35687     7.34187     
C           -58.48239   5.47847     8.80738     
C           -58.90109   5.60007     10.2729     
C           -59.31979   5.72167     11.73842    
C           -60.00567   -6.30503    -0.01817    
C           -60.50796   -7.74916    -0.02231    
C           -61.01025   -9.1933     -0.02646    
C           -61.51254   -10.63744   -0.0306     
C           -62.01483   -12.08157   -0.03474    
C           -62.51712   -13.52571   -0.03889    
C           -63.01942   -14.96984   -0.04303    
C           -63.52171   -16.41398   -0.04717    
C           -64.024     -17.85811   -0.05132    
C           -64.52629   -19.30225   -0.05546    
C           -59.03546   -5.01949    -1.461      
C           -58.56754   -5.17809    -2.90798    
C           -58.09962   -5.33668    -4.35495    
C           -57.6317    -5.49528    -5.80193    
C           -57.16378   -5.65388    -7.24891    
C           -56.69587   -5.81248    -8.69588    
C           -56.22795   -5.97107    -10.14286   
C           -55.76003   -6.12967    -11.58984   
C           -44.0087    -0.74006    -0.00216    
C           -44.69156   0.47336     0.00139     
S           -45.13512   -2.12528    -0.00621    
C           -46.08526   0.29042     0.00086     
C           -46.48883   -1.04407    -0.00306    
F           -48.49287   -2.3917     -0.00701    
H           -44.1708    1.42701     0.00419     
S           -47.46202   1.37033     0.00402     
C           -47.88978   -1.19029    -0.00348    
C           -48.58932   0.0         -0.0        
C           -39.40481   0.70695     0.00192     
C           -40.33233   -0.34557    -0.00106    
N           -40.15499   1.89055     0.00538     
C           -41.56172   1.62025     0.00467     
C           -40.4336    -1.79255    -0.00522    
O           -39.60691   -2.69762    -0.00778    
O           -42.4115    2.51044     0.00733     
C           -42.32462   -3.41676    -0.00988    
C           -39.73485   3.28487     0.00972     
C           -39.29372   4.74885     0.01428     
H           -40.03333   3.37156     1.05447     
H           -39.43636   3.19818     -1.03503    
H           -41.99105   -3.52982    -1.04141    
C           -42.82691   -4.86089    -0.01403    
H           -42.65819   -3.3037     1.02164     
N           -41.84758   -2.04523    -0.00595    
C           -41.64823   0.18216     0.00049     
C           -42.57769   -0.86093    -0.00251    
C           -33.35293   0.0         -0.0        
C           -34.341     -0.96936    -0.00208    
S           -34.03024   1.64557     0.00362     
C           -35.63814   -0.40688    -0.00077    
C           -35.64052   0.98298     0.00228     
F           -37.07852   2.86308     0.00632     
H           -34.13167   -2.03293    -0.00443    
S           -37.24933   -1.05499    -0.00219    
C           -36.93222   1.52819     0.00351     
C           -37.96668   0.59205     0.00154     
C           -38.85259   6.21282     0.01883     
C           -38.41147   7.6768      0.02339     
C           -37.97034   9.14078     0.02794     
C           -37.52922   10.60475    0.0325      
C           -37.08808   12.06873    0.03705     
C           -36.64695   13.5327     0.04161     
C           -36.20583   14.99668    0.04616     
C           -35.7647    16.46065    0.05072     
C           -35.32358   17.92463    0.05527     
C           -34.88244   19.38861    0.05983     
C           -39.71242   4.87045     1.47979     
C           -40.13113   4.99206     2.94531     
C           -40.54982   5.11366     4.41083     
C           -40.96852   5.23526     5.87635     
C           -41.38722   5.35687     7.34187     
C           -41.80593   5.47847     8.80738     
C           -42.22463   5.60007     10.2729     
C           -42.64332   5.72167     11.73842    
C           -43.3292    -6.30503    -0.01817    
C           -43.8315    -7.74916    -0.02231    
C           -44.33379   -9.1933     -0.02646    
C           -44.83608   -10.63744   -0.0306     
C           -45.33837   -12.08157   -0.03474    
C           -45.84066   -13.52571   -0.03889    
C           -46.34295   -14.96984   -0.04303    
C           -46.84524   -16.41398   -0.04717    
C           -47.34753   -17.85811   -0.05132    
C           -47.84982   -19.30225   -0.05546    
C           -42.35899   -5.01949    -1.461      
C           -41.89108   -5.17809    -2.90798    
C           -41.42316   -5.33668    -4.35495    
C           -40.95524   -5.49528    -5.80193    
C           -40.48732   -5.65388    -7.24891    
C           -40.0194    -5.81248    -8.69588    
C           -39.55148   -5.97107    -10.14286   
C           -39.08356   -6.12967    -11.58984   
C           -27.33224   -0.74006    -0.00216    
C           -28.01509   0.47336     0.00139     
S           -28.45865   -2.12528    -0.00621    
C           -29.4088    0.29042     0.00086     
C           -29.81237   -1.04407    -0.00306    
F           -31.8164    -2.3917     -0.00701    
H           -27.49434   1.42701     0.00419     
S           -30.78556   1.37033     0.00402     
C           -31.21331   -1.19029    -0.00348    
C           -31.91285   0.0         -0.0        
C           -22.72834   0.70695     0.00192     
C           -23.65586   -0.34557    -0.00106    
N           -23.47852   1.89055     0.00538     
C           -24.88526   1.62025     0.00467     
C           -23.75714   -1.79255    -0.00522    
O           -22.93044   -2.69762    -0.00778    
O           -25.73504   2.51044     0.00733     
C           -25.64816   -3.41676    -0.00988    
C           -23.05838   3.28487     0.00972     
C           -22.61726   4.74885     0.01428     
H           -23.35687   3.37156     1.05447     
H           -22.7599    3.19818     -1.03503    
H           -25.31458   -3.52982    -1.04141    
C           -26.15045   -4.86089    -0.01403    
H           -25.98173   -3.3037     1.02164     
N           -25.17112   -2.04523    -0.00595    
C           -24.97176   0.18216     0.00049     
C           -25.90123   -0.86093    -0.00251    
C           -16.67647   0.0         -0.0        
C           -17.66454   -0.96936    -0.00208    
S           -17.35378   1.64557     0.00362     
C           -18.96167   -0.40688    -0.00077    
C           -18.96405   0.98298     0.00228     
F           -20.40206   2.86308     0.00632     
H           -17.45521   -2.03293    -0.00443    
S           -20.57287   -1.05499    -0.00219    
C           -20.25575   1.52819     0.00351     
C           -21.29022   0.59205     0.00154     
C           -22.17613   6.21282     0.01883     
C           -21.735     7.6768      0.02339     
C           -21.29387   9.14078     0.02794     
C           -20.85275   10.60475    0.0325      
C           -20.41162   12.06873    0.03705     
C           -19.97049   13.5327     0.04161     
C           -19.52936   14.99668    0.04616     
C           -19.08823   16.46065    0.05072     
C           -18.64711   17.92463    0.05527     
C           -18.20598   19.38861    0.05983     
C           -23.03596   4.87045     1.47979     
C           -23.45466   4.99206     2.94531     
C           -23.87335   5.11366     4.41083     
C           -24.29206   5.23526     5.87635     
C           -24.71076   5.35687     7.34187     
C           -25.12946   5.47847     8.80738     
C           -25.54816   5.60007     10.2729     
C           -25.96686   5.72167     11.73842    
C           -26.65274   -6.30503    -0.01817    
C           -27.15503   -7.74916    -0.02231    
C           -27.65732   -9.1933     -0.02646    
C           -28.15961   -10.63744   -0.0306     
C           -28.6619    -12.08157   -0.03474    
C           -29.16419   -13.52571   -0.03889    
C           -29.66649   -14.96984   -0.04303    
C           -30.16878   -16.41398   -0.04717    
C           -30.67107   -17.85811   -0.05132    
C           -31.17336   -19.30225   -0.05546    
C           -25.68253   -5.01949    -1.461      
C           -25.21461   -5.17809    -2.90798    
C           -24.74669   -5.33668    -4.35495    
C           -24.27877   -5.49528    -5.80193    
C           -23.81085   -5.65388    -7.24891    
C           -23.34294   -5.81248    -8.69588    
C           -22.87502   -5.97107    -10.14286   
C           -22.4071    -6.12967    -11.58984   
C           -10.65577   -0.74006    -0.00216    
C           -11.33863   0.47336     0.00139     
S           -11.78219   -2.12528    -0.00621    
C           -12.73233   0.29042     0.00086     
C           -13.1359    -1.04407    -0.00306    
F           -15.13994   -2.3917     -0.00701    
H           -10.81787   1.42701     0.00419     
S           -14.10909   1.37033     0.00402     
C           -14.53685   -1.19029    -0.00348    
C           -15.23639   0.0         -0.0        
C           -6.05188    0.70695     0.00192     
C           -6.9794     -0.34557    -0.00106    
N           -6.80206    1.89055     0.00538     
C           -8.20879    1.62025     0.00467     
C           -7.08067    -1.79255    -0.00522    
O           -6.25398    -2.69762    -0.00778    
O           -9.05857    2.51044     0.00733     
C           -8.97169    -3.41676    -0.00988    
C           -6.38192    3.28487     0.00972     
C           -5.94079    4.74885     0.01428     
H           -6.6804     3.37156     1.05447     
H           -6.08343    3.19818     -1.03503    
H           -8.63812    -3.52982    -1.04141    
C           -9.47398    -4.86089    -0.01403    
H           -9.30526    -3.3037     1.02164     
N           -8.49465    -2.04523    -0.00595    
C           -8.2953     0.18216     0.00049     
C           -9.22476    -0.86093    -0.00251    
C           0.0         0.0         0.0         
C           -0.98807    -0.96936    -0.00208    
S           -0.67731    1.64557     0.00362     
C           -2.28521    -0.40688    -0.00077    
C           -2.28759    0.98298     0.00228     
F           -3.72559    2.86308     0.00632     
H           -0.77874    -2.03293    -0.00443    
S           -3.8964     -1.05499    -0.00219    
C           -3.57929    1.52819     0.00351     
C           -4.61375    0.59205     0.00154     
C           -5.49966    6.21282     0.01883     
C           -5.05854    7.6768      0.02339     
C           -4.61741    9.14078     0.02794     
C           -4.17629    10.60475    0.0325      
C           -3.73515    12.06873    0.03705     
C           -3.29402    13.5327     0.04161     
C           -2.8529     14.99668    0.04616     
C           -2.41177    16.46065    0.05072     
C           -1.97064    17.92463    0.05527     
C           -1.52951    19.38861    0.05983     
C           -6.35949    4.87045     1.47979     
C           -6.7782     4.99206     2.94531     
C           -7.19689    5.11366     4.41083     
C           -7.61559    5.23526     5.87635     
C           -8.03429    5.35687     7.34187     
C           -8.45299    5.47847     8.80738     
C           -8.8717     5.60007     10.2729     
C           -9.29039    5.72167     11.73842    
C           -9.97627    -6.30503    -0.01817    
C           -10.47856   -7.74916    -0.02231    
C           -10.98086   -9.1933     -0.02646    
C           -11.48315   -10.63744   -0.0306     
C           -11.98544   -12.08157   -0.03474    
C           -12.48773   -13.52571   -0.03889    
C           -12.99002   -14.96984   -0.04303    
C           -13.49231   -16.41398   -0.04717    
C           -13.9946    -17.85811   -0.05132    
C           -14.49689   -19.30225   -0.05546    
C           -9.00606    -5.01949    -1.461      
C           -8.53815    -5.17809    -2.90798    
C           -8.07023    -5.33668    -4.35495    
C           -7.60231    -5.49528    -5.80193    
C           -7.13439    -5.65388    -7.24891    
C           -6.66647    -5.81248    -8.69588    
C           -6.19855    -5.97107    -10.14286   
C           -5.73063    -6.12967    -11.58984   
H           -166.41457  0.0         -0.0        
H           1.09        0.0         0.0         
