47

C           -4.41289    0.18332     -0.00016    
S           -5.33561    1.70545     -0.0017     
C           -5.26034    -0.91884    0.00094     
C           -6.62209    -0.5709     0.00058     
C           -6.83867    0.8195      -0.00082    
S           -8.10613    -1.50796    0.00152     
C           -9.02952    -0.01218    2e-05       
C           -8.2062     1.12176     -0.00112    
C           -10.38431   0.41799     -0.00042    
C           -10.32095   1.92688     -0.00193    
N           -8.97391    2.2822      -0.00231    
C           -8.49705    3.65126     -0.00361    
O           -11.25358   2.7192      -0.00272    
H           -7.8973     3.85961     0.88931     
H           -7.89672    3.85767     -0.89659    
H           -9.37684    4.29724     -0.0046     
C           -11.58504   -0.26107    0.00025     
C           -11.64924   -1.76873    0.00175     
N           -12.9969    -2.12324    0.00215     
C           -13.76392   -0.96204    0.00096     
C           -12.94068   0.17131     -0.0002     
C           -15.13025   -0.65421    0.00066     
C           -15.3478    0.73422     -0.00075    
S           -13.86323   1.66564     -0.00172    
C           -13.47356   -3.49179    0.00354     
H           -14.07348   -3.69894    0.89683     
H           -14.07304   -3.70094    -0.88956    
H           -12.59357   -4.13755    0.00448     
O           -10.71778   -2.56314    0.0026      
H           -4.90398    -1.94163    0.00198     
H           -17.08834   2.10919     -0.00214    
C           -16.71295   1.09526     -0.00112    
S           -16.63891   -1.5292     0.00156     
C           -17.55807   0.0         -0.0        
C           0.0         0.0         0.0         
C           -0.68746    1.26976     -0.00121    
C           -0.83962    -1.11209    0.00106     
N           -0.11255    2.47557     -0.00236    
N           -2.61406    2.58451     -0.00246    
S           -1.3172     3.59215     -0.00343    
H           -2.78285    -1.98527    0.00188     
H           -0.39905    -2.10484    0.00201     
C           -2.24526    -1.04343    0.00099     
C           -2.14397    1.33614     -0.00127    
C           -2.96211    0.15113     -0.00014    
H           -18.64807   0.0         -0.0        
H           1.09        0.0         0.0         
