792

C           -143.66937  0.12366     0.12498     
N           -144.31238  -0.76102    -0.6723     
C           -144.357    1.04252     0.92616     
C           -145.62697  -0.71192    -0.64199    
C           -146.4478   0.16311     0.12369     
C           -147.84405  -0.17503    -0.18075    
C           -147.75135  -1.3186     -1.18805    
N           -146.4096   -1.56654    -1.40345    
C           -149.04065  0.33942     0.26218     
C           -149.13309  1.50564     1.2429      
N           -150.47486  1.75851     1.45309     
C           -151.25787  0.87968     0.71905     
C           -151.12967  -0.95006    -0.796      
C           -150.43688  -0.01094    -0.02784    
C           -145.75556  1.068       0.93267     
O           -148.23808  2.145       1.7752      
O           -148.64614  -1.94033    -1.74102    
C           -150.98772  2.80144     2.32151     
C           -145.89479  -2.59264    -2.29093    
H           -145.42006  -3.08734    -1.44358    
C           -145.35232  -3.67386    -3.22609    
H           -146.36952  -2.09794    -3.13828    
H           -151.46519  3.27906     1.46592     
C           -151.52822  3.90058     3.23671     
H           -150.51024  2.32383     3.17708     
H           -153.07757  -1.66626    -1.35891    
H           -150.59527  -1.66797    -1.39811    
H           -146.29025  1.77024     1.55283     
H           -143.80803  1.73474     1.55246     
C           -152.52865  -0.93905    -0.77539    
N           -152.5723   0.91941     0.75949     
C           -153.21765  0.0         0.0         
C           -139.22819  0.0         0.0         
C           -140.00881  -1.21155    0.01677     
C           -139.97012  1.15896     0.05173     
N           -139.50246  -2.44716    0.02557     
N           -142.01533  -2.4003     0.13161     
S           -140.77918  -3.47984    0.10326     
F           -141.94171  2.40858     0.11865     
F           -139.39909  2.36528     0.00028     
C           -141.39804  1.18097     0.10623     
C           -141.46555  -1.18584    0.07225     
C           -142.18997  0.0585      0.10799     
C           -152.06872  4.99972     4.15192     
C           -152.60921  6.09885     5.06713     
C           -153.14971  7.19798     5.98234     
C           -153.69021  8.29711     6.89755     
C           -154.23071  9.39624     7.81276     
C           -154.77121  10.49537    8.72797     
C           -155.31171  11.59451    9.64318     
C           -155.8522   12.69364    10.55839    
C           -156.39271  13.79278    11.4736     
C           -156.93321  14.89191    12.38881    
C           -152.19799  4.57055     2.03655     
C           -152.86776  5.24052     0.83639     
C           -153.53754  5.91048     -0.36377    
C           -154.20732  6.58046     -1.56393    
C           -154.87709  7.25042     -2.76409    
C           -155.54687  7.92039     -3.96425    
C           -156.21664  8.59036     -5.16441    
C           -156.88641  9.26033     -6.36457    
C           -144.80986  -4.75509    -4.16125    
C           -144.26739  -5.83631    -5.09641    
C           -143.72492  -6.91754    -6.03157    
C           -143.18246  -7.99876    -6.96673    
C           -142.63999  -9.07998    -7.90189    
C           -142.09752  -10.16121   -8.83705    
C           -141.55506  -11.24243   -9.77221    
C           -141.01259  -12.32366   -10.70738   
C           -140.47013  -13.40488   -11.64254   
C           -139.92766  -14.4861    -12.5777    
C           -144.68639  -4.36781    -2.03747    
C           -144.02046  -5.06175    -0.84885    
C           -143.35453  -5.75569    0.33978     
C           -142.6886   -6.44963    1.5284      
C           -142.02267  -7.14358    2.71702     
C           -141.35674  -7.83752    3.90564     
C           -140.69081  -8.53146    5.09426     
C           -140.02488  -9.2254     6.28288     
C           -128.19957  0.12294     0.12569     
N           -128.84258  -0.7571     -0.6767     
C           -128.8872   1.03713     0.93219     
C           -130.15717  -0.70818    -0.64611    
C           -130.978    0.16239     0.12463     
C           -132.37425  -0.17397    -0.18176    
C           -132.28156  -1.31168    -1.19568    
N           -130.9398   -1.55838    -1.41251    
C           -133.57085  0.33789     0.26414     
C           -133.66329  1.4984      1.25161     
N           -135.00506  1.75005     1.46326     
C           -135.78807  0.8755      0.72414     
C           -135.65987  -0.94543    -0.8015     
C           -134.96708  -0.01078    -0.0279     
C           -130.28576  1.06257     0.93885     
O           -132.76828  2.13466     1.78762     
O           -133.17634  -1.93019    -1.75225    
C           -135.51792  2.78793     2.33772     
C           -130.42499  -2.5793     -2.30593    
H           -129.95026  -3.07891    -1.46146    
C           -129.88252  -3.65509    -3.24735    
H           -130.89972  -2.0797     -3.1504     
H           -135.99539  3.2705      1.48492     
C           -136.05842  3.88174     3.25928     
H           -135.04044  2.30536     3.19051     
H           -137.60777  -1.65835    -1.36856    
H           -135.12547  -1.65983    -1.40776    
H           -130.82045  1.7612      1.56307     
H           -128.33823  1.7257      1.5625      
C           -137.05885  -0.93454    -0.78082    
N           -137.1025   0.91498     0.76481     
C           -137.74785  0.0         0.0         
C           -123.75839  0.0         0.0         
C           -124.53901  -1.21163    0.00974     
C           -124.50032  1.15864     0.05846     
N           -124.03266  -2.44727    0.01137     
N           -126.54553  -2.40103    0.11769     
S           -125.30939  -3.48038    0.08307     
F           -126.47191  2.40785     0.13262     
F           -123.92929  2.36524     0.014       
C           -125.92824  1.18034     0.11308     
C           -125.99575  -1.18624    0.06537     
C           -126.72018  0.05787     0.10832     
C           -136.59892  4.97554     4.18086     
C           -137.13942  6.06935     5.10243     
C           -137.67991  7.16315     6.024       
C           -138.22041  8.25696     6.94557     
C           -138.76091  9.35076     7.86714     
C           -139.30141  10.44456    8.78871     
C           -139.84191  11.53837    9.71029     
C           -140.3824   12.63217    10.63186    
C           -140.92291  13.72599    11.55342    
C           -141.46341  14.81978    12.475      
C           -136.72819  4.55866     2.06304     
C           -137.39796  5.23558     0.86678     
C           -138.06774  5.91249     -0.32948    
C           -138.73752  6.58942     -1.52572    
C           -139.40729  7.26634     -2.72198    
C           -140.07707  7.94326     -3.91823    
C           -140.74684  8.62018     -5.11448    
C           -141.41661  9.29709     -6.31073    
C           -129.34006  -4.73087    -4.18877    
C           -128.79759  -5.80665    -5.13018    
C           -128.25512  -6.88243    -6.0716     
C           -127.71266  -7.95821    -7.01302    
C           -127.17019  -9.03399    -7.95444    
C           -126.62773  -10.10977   -8.89586    
C           -126.08526  -11.18555   -9.83727    
C           -125.54279  -12.26133   -10.77869   
C           -125.00033  -13.33711   -11.72011   
C           -124.45786  -14.41289   -12.66153   
C           -129.21659  -4.35591    -2.06277    
C           -128.55066  -5.05674    -0.8782     
C           -127.88473  -5.75757    0.30638     
C           -127.2188   -6.45839    1.49095     
C           -126.55287  -7.15922    2.67553     
C           -125.88694  -7.86005    3.8601      
C           -125.22101  -8.56087    5.04468     
C           -124.55508  -9.2617     6.22926     
C           -112.72977  0.12294     0.12569     
N           -113.37279  -0.7571     -0.6767     
C           -113.4174   1.03713     0.93219     
C           -114.68737  -0.70818    -0.64611    
C           -115.5082   0.16239     0.12463     
C           -116.90445  -0.17397    -0.18176    
C           -116.81176  -1.31168    -1.19568    
N           -115.47     -1.55838    -1.41251    
C           -118.10105  0.33789     0.26414     
C           -118.19349  1.4984      1.25161     
N           -119.53526  1.75005     1.46326     
C           -120.31827  0.8755      0.72414     
C           -120.19007  -0.94543    -0.8015     
C           -119.49729  -0.01078    -0.0279     
C           -114.81596  1.06257     0.93885     
O           -117.29848  2.13466     1.78762     
O           -117.70654  -1.93019    -1.75225    
C           -120.04812  2.78793     2.33772     
C           -114.95519  -2.5793     -2.30593    
H           -114.48046  -3.07891    -1.46146    
C           -114.41272  -3.65509    -3.24735    
H           -115.42992  -2.0797     -3.1504     
H           -120.52559  3.2705      1.48492     
C           -120.58862  3.88174     3.25928     
H           -119.57064  2.30536     3.19051     
H           -122.13797  -1.65835    -1.36856    
H           -119.65568  -1.65983    -1.40776    
H           -115.35065  1.7612      1.56307     
H           -112.86843  1.7257      1.5625      
C           -121.58905  -0.93454    -0.78082    
N           -121.63271  0.91498     0.76481     
C           -122.27805  0.0         0.0         
C           -108.28859  0.0         0.0         
C           -109.06921  -1.21163    0.00974     
C           -109.03053  1.15864     0.05846     
N           -108.56286  -2.44727    0.01137     
N           -111.07573  -2.40103    0.11769     
S           -109.83959  -3.48038    0.08307     
F           -111.00211  2.40785     0.13262     
F           -108.45949  2.36524     0.014       
C           -110.45844  1.18034     0.11308     
C           -110.52595  -1.18624    0.06537     
C           -111.25038  0.05787     0.10832     
C           -121.12912  4.97554     4.18086     
C           -121.66962  6.06935     5.10243     
C           -122.21011  7.16315     6.024       
C           -122.75061  8.25696     6.94557     
C           -123.29111  9.35076     7.86714     
C           -123.83161  10.44456    8.78871     
C           -124.37211  11.53837    9.71029     
C           -124.9126   12.63217    10.63186    
C           -125.45311  13.72599    11.55342    
C           -125.99361  14.81978    12.475      
C           -121.25839  4.55866     2.06304     
C           -121.92816  5.23558     0.86678     
C           -122.59795  5.91249     -0.32948    
C           -123.26772  6.58942     -1.52572    
C           -123.93749  7.26634     -2.72198    
C           -124.60727  7.94326     -3.91823    
C           -125.27704  8.62018     -5.11448    
C           -125.94681  9.29709     -6.31073    
C           -113.87026  -4.73087    -4.18877    
C           -113.32779  -5.80665    -5.13018    
C           -112.78533  -6.88243    -6.0716     
C           -112.24286  -7.95821    -7.01302    
C           -111.70039  -9.03399    -7.95444    
C           -111.15793  -10.10977   -8.89586    
C           -110.61546  -11.18555   -9.83727    
C           -110.07299  -12.26133   -10.77869   
C           -109.53053  -13.33711   -11.72011   
C           -108.98806  -14.41289   -12.66153   
C           -113.74679  -4.35591    -2.06277    
C           -113.08086  -5.05674    -0.8782     
C           -112.41493  -5.75757    0.30638     
C           -111.749    -6.45839    1.49095     
C           -111.08307  -7.15922    2.67553     
C           -110.41714  -7.86005    3.8601      
C           -109.75121  -8.56087    5.04468     
C           -109.08528  -9.2617     6.22926     
C           -97.25997   0.12294     0.12569     
N           -97.90299   -0.7571     -0.6767     
C           -97.9476    1.03713     0.93219     
C           -99.21757   -0.70818    -0.64611    
C           -100.0384   0.16239     0.12463     
C           -101.43465  -0.17397    -0.18176    
C           -101.34196  -1.31168    -1.19568    
N           -100.0002   -1.55838    -1.41251    
C           -102.63125  0.33789     0.26414     
C           -102.72369  1.4984      1.25161     
N           -104.06546  1.75005     1.46326     
C           -104.84847  0.8755      0.72414     
C           -104.72027  -0.94543    -0.8015     
C           -104.02749  -0.01078    -0.0279     
C           -99.34616   1.06257     0.93885     
O           -101.82868  2.13466     1.78762     
O           -102.23674  -1.93019    -1.75225    
C           -104.57832  2.78793     2.33772     
C           -99.48539   -2.5793     -2.30593    
H           -99.01066   -3.07891    -1.46146    
C           -98.94293   -3.65509    -3.24735    
H           -99.96012   -2.0797     -3.1504     
H           -105.05579  3.2705      1.48492     
C           -105.11882  3.88174     3.25928     
H           -104.10084  2.30536     3.19051     
H           -106.66818  -1.65835    -1.36856    
H           -104.18588  -1.65983    -1.40776    
H           -99.88085   1.7612      1.56307     
H           -97.39863   1.7257      1.5625      
C           -106.11926  -0.93454    -0.78082    
N           -106.16291  0.91498     0.76481     
C           -106.80825  0.0         0.0         
C           -92.81879   0.0         0.0         
C           -93.59941   -1.21163    0.00974     
C           -93.56073   1.15864     0.05846     
N           -93.09306   -2.44727    0.01137     
N           -95.60593   -2.40103    0.11769     
S           -94.36979   -3.48038    0.08307     
F           -95.53232   2.40785     0.13262     
F           -92.98969   2.36524     0.014       
C           -94.98864   1.18034     0.11308     
C           -95.05616   -1.18624    0.06537     
C           -95.78058   0.05787     0.10832     
C           -105.65932  4.97554     4.18086     
C           -106.19982  6.06935     5.10243     
C           -106.74031  7.16315     6.024       
C           -107.28082  8.25696     6.94557     
C           -107.82131  9.35076     7.86714     
C           -108.36181  10.44456    8.78871     
C           -108.90231  11.53837    9.71029     
C           -109.44281  12.63217    10.63186    
C           -109.98331  13.72599    11.55342    
C           -110.52382  14.81978    12.475      
C           -105.78859  4.55866     2.06304     
C           -106.45836  5.23558     0.86678     
C           -107.12815  5.91249     -0.32948    
C           -107.79792  6.58942     -1.52572    
C           -108.46769  7.26634     -2.72198    
C           -109.13748  7.94326     -3.91823    
C           -109.80725  8.62018     -5.11448    
C           -110.47702  9.29709     -6.31073    
C           -98.40046   -4.73087    -4.18877    
C           -97.85799   -5.80665    -5.13018    
C           -97.31553   -6.88243    -6.0716     
C           -96.77306   -7.95821    -7.01302    
C           -96.23059   -9.03399    -7.95444    
C           -95.68813   -10.10977   -8.89586    
C           -95.14566   -11.18555   -9.83727    
C           -94.6032    -12.26133   -10.77869   
C           -94.06073   -13.33711   -11.72011   
C           -93.51826   -14.41289   -12.66153   
C           -98.27699   -4.35591    -2.06277    
C           -97.61106   -5.05674    -0.8782     
C           -96.94513   -5.75757    0.30638     
C           -96.2792    -6.45839    1.49095     
C           -95.61327   -7.15922    2.67553     
C           -94.94734   -7.86005    3.8601      
C           -94.28141   -8.56087    5.04468     
C           -93.61548   -9.2617     6.22926     
C           -81.79017   0.12294     0.12569     
N           -82.43319   -0.7571     -0.6767     
C           -82.4778    1.03713     0.93219     
C           -83.74777   -0.70818    -0.64611    
C           -84.5686    0.16239     0.12463     
C           -85.96485   -0.17397    -0.18176    
C           -85.87216   -1.31168    -1.19568    
N           -84.5304    -1.55838    -1.41251    
C           -87.16146   0.33789     0.26414     
C           -87.2539    1.4984      1.25161     
N           -88.59566   1.75005     1.46326     
C           -89.37867   0.8755      0.72414     
C           -89.25047   -0.94543    -0.8015     
C           -88.55769   -0.01078    -0.0279     
C           -83.87636   1.06257     0.93885     
O           -86.35888   2.13466     1.78762     
O           -86.76695   -1.93019    -1.75225    
C           -89.10852   2.78793     2.33772     
C           -84.01559   -2.5793     -2.30593    
H           -83.54086   -3.07891    -1.46146    
C           -83.47313   -3.65509    -3.24735    
H           -84.49032   -2.0797     -3.1504     
H           -89.58599   3.2705      1.48492     
C           -89.64902   3.88174     3.25928     
H           -88.63104   2.30536     3.19051     
H           -91.19838   -1.65835    -1.36856    
H           -88.71608   -1.65983    -1.40776    
H           -84.41105   1.7612      1.56307     
H           -81.92884   1.7257      1.5625      
C           -90.64946   -0.93454    -0.78082    
N           -90.69311   0.91498     0.76481     
C           -91.33846   0.0         0.0         
C           -77.34899   0.0         0.0         
C           -78.12961   -1.21163    0.00974     
C           -78.09093   1.15864     0.05846     
N           -77.62326   -2.44727    0.01137     
N           -80.13613   -2.40103    0.11769     
S           -78.89999   -3.48038    0.08307     
F           -80.06252   2.40785     0.13262     
F           -77.51989   2.36524     0.014       
C           -79.51884   1.18034     0.11308     
C           -79.58636   -1.18624    0.06537     
C           -80.31078   0.05787     0.10832     
C           -90.18952   4.97554     4.18086     
C           -90.73002   6.06935     5.10243     
C           -91.27052   7.16315     6.024       
C           -91.81102   8.25696     6.94557     
C           -92.35151   9.35076     7.86714     
C           -92.89201   10.44456    8.78871     
C           -93.43251   11.53837    9.71029     
C           -93.97301   12.63217    10.63186    
C           -94.51351   13.72599    11.55342    
C           -95.05402   14.81978    12.475      
C           -90.3188    4.55866     2.06304     
C           -90.98857   5.23558     0.86678     
C           -91.65835   5.91249     -0.32948    
C           -92.32812   6.58942     -1.52572    
C           -92.99789   7.26634     -2.72198    
C           -93.66768   7.94326     -3.91823    
C           -94.33745   8.62018     -5.11448    
C           -95.00722   9.29709     -6.31073    
C           -82.93066   -4.73087    -4.18877    
C           -82.38819   -5.80665    -5.13018    
C           -81.84573   -6.88243    -6.0716     
C           -81.30326   -7.95821    -7.01302    
C           -80.7608    -9.03399    -7.95444    
C           -80.21833   -10.10977   -8.89586    
C           -79.67586   -11.18555   -9.83727    
C           -79.1334    -12.26133   -10.77869   
C           -78.59093   -13.33711   -11.72011   
C           -78.04846   -14.41289   -12.66153   
C           -82.8072    -4.35591    -2.06277    
C           -82.14126   -5.05674    -0.8782     
C           -81.47533   -5.75757    0.30638     
C           -80.8094    -6.45839    1.49095     
C           -80.14347   -7.15922    2.67553     
C           -79.47754   -7.86005    3.8601      
C           -78.81161   -8.56087    5.04468     
C           -78.14568   -9.2617     6.22926     
C           -66.32037   0.12294     0.12569     
N           -66.96339   -0.7571     -0.6767     
C           -67.00801   1.03713     0.93219     
C           -68.27797   -0.70818    -0.64611    
C           -69.0988    0.16239     0.12463     
C           -70.49505   -0.17397    -0.18176    
C           -70.40236   -1.31168    -1.19568    
N           -69.0606    -1.55838    -1.41251    
C           -71.69166   0.33789     0.26414     
C           -71.7841    1.4984      1.25161     
N           -73.12586   1.75005     1.46326     
C           -73.90887   0.8755      0.72414     
C           -73.78067   -0.94543    -0.8015     
C           -73.08789   -0.01078    -0.0279     
C           -68.40656   1.06257     0.93885     
O           -70.88908   2.13466     1.78762     
O           -71.29715   -1.93019    -1.75225    
C           -73.63872   2.78793     2.33772     
C           -68.54579   -2.5793     -2.30593    
H           -68.07106   -3.07891    -1.46146    
C           -68.00333   -3.65509    -3.24735    
H           -69.02053   -2.0797     -3.1504     
H           -74.11619   3.2705      1.48492     
C           -74.17922   3.88174     3.25928     
H           -73.16124   2.30536     3.19051     
H           -75.72858   -1.65835    -1.36856    
H           -73.24628   -1.65983    -1.40776    
H           -68.94125   1.7612      1.56307     
H           -66.45904   1.7257      1.5625      
C           -75.17966   -0.93454    -0.78082    
N           -75.22331   0.91498     0.76481     
C           -75.86866   0.0         0.0         
C           -61.8792    0.0         0.0         
C           -62.65981   -1.21163    0.00974     
C           -62.62113   1.15864     0.05846     
N           -62.15346   -2.44727    0.01137     
N           -64.66633   -2.40103    0.11769     
S           -63.43019   -3.48038    0.08307     
F           -64.59272   2.40785     0.13262     
F           -62.0501    2.36524     0.014       
C           -64.04904   1.18034     0.11308     
C           -64.11656   -1.18624    0.06537     
C           -64.84098   0.05787     0.10832     
C           -74.71972   4.97554     4.18086     
C           -75.26022   6.06935     5.10243     
C           -75.80072   7.16315     6.024       
C           -76.34122   8.25696     6.94557     
C           -76.88171   9.35076     7.86714     
C           -77.42221   10.44456    8.78871     
C           -77.96271   11.53837    9.71029     
C           -78.50321   12.63217    10.63186    
C           -79.04371   13.72599    11.55342    
C           -79.58422   14.81978    12.475      
C           -74.849     4.55866     2.06304     
C           -75.51877   5.23558     0.86678     
C           -76.18855   5.91249     -0.32948    
C           -76.85832   6.58942     -1.52572    
C           -77.52809   7.26634     -2.72198    
C           -78.19788   7.94326     -3.91823    
C           -78.86765   8.62018     -5.11448    
C           -79.53742   9.29709     -6.31073    
C           -67.46086   -4.73087    -4.18877    
C           -66.9184    -5.80665    -5.13018    
C           -66.37593   -6.88243    -6.0716     
C           -65.83346   -7.95821    -7.01302    
C           -65.291     -9.03399    -7.95444    
C           -64.74853   -10.10977   -8.89586    
C           -64.20606   -11.18555   -9.83727    
C           -63.6636    -12.26133   -10.77869   
C           -63.12113   -13.33711   -11.72011   
C           -62.57867   -14.41289   -12.66153   
C           -67.3374    -4.35591    -2.06277    
C           -66.67147   -5.05674    -0.8782     
C           -66.00553   -5.75757    0.30638     
C           -65.3396    -6.45839    1.49095     
C           -64.67367   -7.15922    2.67553     
C           -64.00774   -7.86005    3.8601      
C           -63.34181   -8.56087    5.04468     
C           -62.67588   -9.2617     6.22926     
C           -50.85057   0.12294     0.12569     
N           -51.49359   -0.7571     -0.6767     
C           -51.53821   1.03713     0.93219     
C           -52.80818   -0.70818    -0.64611    
C           -53.62901   0.16239     0.12463     
C           -55.02526   -0.17397    -0.18176    
C           -54.93256   -1.31168    -1.19568    
N           -53.5908    -1.55838    -1.41251    
C           -56.22186   0.33789     0.26414     
C           -56.3143    1.4984      1.25161     
N           -57.65606   1.75005     1.46326     
C           -58.43907   0.8755      0.72414     
C           -58.31087   -0.94543    -0.8015     
C           -57.61809   -0.01078    -0.0279     
C           -52.93677   1.06257     0.93885     
O           -55.41929   2.13466     1.78762     
O           -55.82735   -1.93019    -1.75225    
C           -58.16892   2.78793     2.33772     
C           -53.07599   -2.5793     -2.30593    
H           -52.60126   -3.07891    -1.46146    
C           -52.53353   -3.65509    -3.24735    
H           -53.55073   -2.0797     -3.1504     
H           -58.64639   3.2705      1.48492     
C           -58.70942   3.88174     3.25928     
H           -57.69145   2.30536     3.19051     
H           -60.25878   -1.65835    -1.36856    
H           -57.77648   -1.65983    -1.40776    
H           -53.47145   1.7612      1.56307     
H           -50.98924   1.7257      1.5625      
C           -59.70986   -0.93454    -0.78082    
N           -59.75351   0.91498     0.76481     
C           -60.39886   0.0         0.0         
C           -46.4094    0.0         0.0         
C           -47.19002   -1.21163    0.00974     
C           -47.15133   1.15864     0.05846     
N           -46.68366   -2.44727    0.01137     
N           -49.19654   -2.40103    0.11769     
S           -47.96039   -3.48038    0.08307     
F           -49.12292   2.40785     0.13262     
F           -46.5803    2.36524     0.014       
C           -48.57925   1.18034     0.11308     
C           -48.64676   -1.18624    0.06537     
C           -49.37118   0.05787     0.10832     
C           -59.24992   4.97554     4.18086     
C           -59.79042   6.06935     5.10243     
C           -60.33092   7.16315     6.024       
C           -60.87142   8.25696     6.94557     
C           -61.41192   9.35076     7.86714     
C           -61.95241   10.44456    8.78871     
C           -62.49291   11.53837    9.71029     
C           -63.03341   12.63217    10.63186    
C           -63.57391   13.72599    11.55342    
C           -64.11442   14.81978    12.475      
C           -59.3792    4.55866     2.06304     
C           -60.04897   5.23558     0.86678     
C           -60.71875   5.91249     -0.32948    
C           -61.38852   6.58942     -1.52572    
C           -62.05829   7.26634     -2.72198    
C           -62.72808   7.94326     -3.91823    
C           -63.39785   8.62018     -5.11448    
C           -64.06762   9.29709     -6.31073    
C           -51.99106   -4.73087    -4.18877    
C           -51.4486    -5.80665    -5.13018    
C           -50.90613   -6.88243    -6.0716     
C           -50.36366   -7.95821    -7.01302    
C           -49.8212    -9.03399    -7.95444    
C           -49.27873   -10.10977   -8.89586    
C           -48.73627   -11.18555   -9.83727    
C           -48.1938    -12.26133   -10.77869   
C           -47.65133   -13.33711   -11.72011   
C           -47.10887   -14.41289   -12.66153   
C           -51.8676    -4.35591    -2.06277    
C           -51.20167   -5.05674    -0.8782     
C           -50.53574   -5.75757    0.30638     
C           -49.86981   -6.45839    1.49095     
C           -49.20387   -7.15922    2.67553     
C           -48.53794   -7.86005    3.8601      
C           -47.87201   -8.56087    5.04468     
C           -47.20608   -9.2617     6.22926     
C           -35.38078   0.12294     0.12569     
N           -36.02379   -0.7571     -0.6767     
C           -36.06841   1.03713     0.93219     
C           -37.33838   -0.70818    -0.64611    
C           -38.15921   0.16239     0.12463     
C           -39.55546   -0.17397    -0.18176    
C           -39.46276   -1.31168    -1.19568    
N           -38.121     -1.55838    -1.41251    
C           -40.75206   0.33789     0.26414     
C           -40.8445    1.4984      1.25161     
N           -42.18626   1.75005     1.46326     
C           -42.96927   0.8755      0.72414     
C           -42.84108   -0.94543    -0.8015     
C           -42.14829   -0.01078    -0.0279     
C           -37.46697   1.06257     0.93885     
O           -39.94949   2.13466     1.78762     
O           -40.35755   -1.93019    -1.75225    
C           -42.69912   2.78793     2.33772     
C           -37.6062    -2.5793     -2.30593    
H           -37.13146   -3.07891    -1.46146    
C           -37.06373   -3.65509    -3.24735    
H           -38.08093   -2.0797     -3.1504     
H           -43.17659   3.2705      1.48492     
C           -43.23963   3.88174     3.25928     
H           -42.22165   2.30536     3.19051     
H           -44.78898   -1.65835    -1.36856    
H           -42.30668   -1.65983    -1.40776    
H           -38.00165   1.7612      1.56307     
H           -35.51944   1.7257      1.5625      
C           -44.24006   -0.93454    -0.78082    
N           -44.28371   0.91498     0.76481     
C           -44.92906   0.0         0.0         
C           -30.9396    0.0         0.0         
C           -31.72022   -1.21163    0.00974     
C           -31.68153   1.15864     0.05846     
N           -31.21386   -2.44727    0.01137     
N           -33.72674   -2.40103    0.11769     
S           -32.49059   -3.48038    0.08307     
F           -33.65312   2.40785     0.13262     
F           -31.1105    2.36524     0.014       
C           -33.10945   1.18034     0.11308     
C           -33.17696   -1.18624    0.06537     
C           -33.90138   0.05787     0.10832     
C           -43.78013   4.97554     4.18086     
C           -44.32062   6.06935     5.10243     
C           -44.86112   7.16315     6.024       
C           -45.40162   8.25696     6.94557     
C           -45.94212   9.35076     7.86714     
C           -46.48261   10.44456    8.78871     
C           -47.02311   11.53837    9.71029     
C           -47.56361   12.63217    10.63186    
C           -48.10411   13.72599    11.55342    
C           -48.64462   14.81978    12.475      
C           -43.9094    4.55866     2.06304     
C           -44.57917   5.23558     0.86678     
C           -45.24895   5.91249     -0.32948    
C           -45.91872   6.58942     -1.52572    
C           -46.58849   7.26634     -2.72198    
C           -47.25828   7.94326     -3.91823    
C           -47.92805   8.62018     -5.11448    
C           -48.59782   9.29709     -6.31073    
C           -36.52126   -4.73087    -4.18877    
C           -35.9788    -5.80665    -5.13018    
C           -35.43633   -6.88243    -6.0716     
C           -34.89387   -7.95821    -7.01302    
C           -34.3514    -9.03399    -7.95444    
C           -33.80893   -10.10977   -8.89586    
C           -33.26647   -11.18555   -9.83727    
C           -32.724     -12.26133   -10.77869   
C           -32.18153   -13.33711   -11.72011   
C           -31.63907   -14.41289   -12.66153   
C           -36.3978    -4.35591    -2.06277    
C           -35.73187   -5.05674    -0.8782     
C           -35.06594   -5.75757    0.30638     
C           -34.40001   -6.45839    1.49095     
C           -33.73408   -7.15922    2.67553     
C           -33.06814   -7.86005    3.8601      
C           -32.40221   -8.56087    5.04468     
C           -31.73628   -9.2617     6.22926     
C           -19.91098   0.12294     0.12569     
N           -20.55399   -0.7571     -0.6767     
C           -20.59861   1.03713     0.93219     
C           -21.86858   -0.70818    -0.64611    
C           -22.68941   0.16239     0.12463     
C           -24.08566   -0.17397    -0.18176    
C           -23.99296   -1.31168    -1.19568    
N           -22.6512    -1.55838    -1.41251    
C           -25.28226   0.33789     0.26414     
C           -25.3747    1.4984      1.25161     
N           -26.71646   1.75005     1.46326     
C           -27.49948   0.8755      0.72414     
C           -27.37128   -0.94543    -0.8015     
C           -26.67849   -0.01078    -0.0279     
C           -21.99717   1.06257     0.93885     
O           -24.47969   2.13466     1.78762     
O           -24.88775   -1.93019    -1.75225    
C           -27.22933   2.78793     2.33772     
C           -22.1364    -2.5793     -2.30593    
H           -21.66167   -3.07891    -1.46146    
C           -21.59393   -3.65509    -3.24735    
H           -22.61113   -2.0797     -3.1504     
H           -27.7068    3.2705      1.48492     
C           -27.76983   3.88174     3.25928     
H           -26.75185   2.30536     3.19051     
H           -29.31918   -1.65835    -1.36856    
H           -26.83688   -1.65983    -1.40776    
H           -22.53186   1.7612      1.56307     
H           -20.04964   1.7257      1.5625      
C           -28.77026   -0.93454    -0.78082    
N           -28.81391   0.91498     0.76481     
C           -29.45926   0.0         0.0         
C           -15.4698    0.0         0.0         
C           -16.25042   -1.21163    0.00974     
C           -16.21173   1.15864     0.05846     
N           -15.74406   -2.44727    0.01137     
N           -18.25694   -2.40103    0.11769     
S           -17.02079   -3.48038    0.08307     
F           -18.18332   2.40785     0.13262     
F           -15.6407    2.36524     0.014       
C           -17.63965   1.18034     0.11308     
C           -17.70716   -1.18624    0.06537     
C           -18.43158   0.05787     0.10832     
C           -28.31033   4.97554     4.18086     
C           -28.85082   6.06935     5.10243     
C           -29.39132   7.16315     6.024       
C           -29.93182   8.25696     6.94557     
C           -30.47232   9.35076     7.86714     
C           -31.01281   10.44456    8.78871     
C           -31.55331   11.53837    9.71029     
C           -32.09381   12.63217    10.63186    
C           -32.63432   13.72599    11.55342    
C           -33.17482   14.81978    12.475      
C           -28.4396    4.55866     2.06304     
C           -29.10937   5.23558     0.86678     
C           -29.77915   5.91249     -0.32948    
C           -30.44893   6.58942     -1.52572    
C           -31.1187    7.26634     -2.72198    
C           -31.78848   7.94326     -3.91823    
C           -32.45825   8.62018     -5.11448    
C           -33.12802   9.29709     -6.31073    
C           -21.05146   -4.73087    -4.18877    
C           -20.509     -5.80665    -5.13018    
C           -19.96653   -6.88243    -6.0716     
C           -19.42407   -7.95821    -7.01302    
C           -18.8816    -9.03399    -7.95444    
C           -18.33913   -10.10977   -8.89586    
C           -17.79667   -11.18555   -9.83727    
C           -17.2542    -12.26133   -10.77869   
C           -16.71174   -13.33711   -11.72011   
C           -16.16927   -14.41289   -12.66153   
C           -20.928     -4.35591    -2.06277    
C           -20.26207   -5.05674    -0.8782     
C           -19.59614   -5.75757    0.30638     
C           -18.93021   -6.45839    1.49095     
C           -18.26428   -7.15922    2.67553     
C           -17.59835   -7.86005    3.8601      
C           -16.93242   -8.56087    5.04468     
C           -16.26648   -9.2617     6.22926     
C           -4.44118    0.12294     0.12569     
N           -5.08419    -0.7571     -0.6767     
C           -5.12881    1.03713     0.93219     
C           -6.39878    -0.70818    -0.64611    
C           -7.21961    0.16239     0.12463     
C           -8.61586    -0.17397    -0.18176    
C           -8.52317    -1.31168    -1.19568    
N           -7.18141    -1.55838    -1.41251    
C           -9.81246    0.33789     0.26414     
C           -9.9049     1.4984      1.25161     
N           -11.24667   1.75005     1.46326     
C           -12.02968   0.8755      0.72414     
C           -11.90148   -0.94543    -0.8015     
C           -11.20869   -0.01078    -0.0279     
C           -6.52737    1.06257     0.93885     
O           -9.00989    2.13466     1.78762     
O           -9.41795    -1.93019    -1.75225    
C           -11.75953   2.78793     2.33772     
C           -6.6666     -2.5793     -2.30593    
H           -6.19187    -3.07891    -1.46146    
C           -6.12413    -3.65509    -3.24735    
H           -7.14133    -2.0797     -3.1504     
H           -12.237     3.2705      1.48492     
C           -12.30003   3.88174     3.25928     
H           -11.28205   2.30536     3.19051     
H           -13.84938   -1.65835    -1.36856    
H           -11.36708   -1.65983    -1.40776    
H           -7.06206    1.7612      1.56307     
H           -4.57984    1.7257      1.5625      
C           -13.30046   -0.93454    -0.78082    
N           -13.34411   0.91498     0.76481     
C           -13.98946   0.0         0.0         
C           0.0         0.0         0.0         
C           -0.78062    -1.21163    0.00974     
C           -0.74193    1.15864     0.05846     
N           -0.27427    -2.44727    0.01137     
N           -2.78714    -2.40103    0.11769     
S           -1.55099    -3.48038    0.08307     
F           -2.71352    2.40785     0.13262     
F           -0.1709     2.36524     0.014       
C           -2.16985    1.18034     0.11308     
C           -2.23736    -1.18624    0.06537     
C           -2.96178    0.05787     0.10832     
C           -12.84053   4.97554     4.18086     
C           -13.38102   6.06935     5.10243     
C           -13.92152   7.16315     6.024       
C           -14.46202   8.25696     6.94557     
C           -15.00252   9.35076     7.86714     
C           -15.54302   10.44456    8.78871     
C           -16.08352   11.53837    9.71029     
C           -16.62401   12.63217    10.63186    
C           -17.16452   13.72599    11.55342    
C           -17.70502   14.81978    12.475      
C           -12.9698    4.55866     2.06304     
C           -13.63957   5.23558     0.86678     
C           -14.30935   5.91249     -0.32948    
C           -14.97913   6.58942     -1.52572    
C           -15.6489    7.26634     -2.72198    
C           -16.31868   7.94326     -3.91823    
C           -16.98845   8.62018     -5.11448    
C           -17.65822   9.29709     -6.31073    
C           -5.58167    -4.73087    -4.18877    
C           -5.0392     -5.80665    -5.13018    
C           -4.49673    -6.88243    -6.0716     
C           -3.95427    -7.95821    -7.01302    
C           -3.4118     -9.03399    -7.95444    
C           -2.86934    -10.10977   -8.89586    
C           -2.32687    -11.18555   -9.83727    
C           -1.7844     -12.26133   -10.77869   
C           -1.24194    -13.33711   -11.72011   
C           -0.69947    -14.41289   -12.66153   
C           -5.4582     -4.35591    -2.06277    
C           -4.79227    -5.05674    -0.8782     
C           -4.12634    -5.75757    0.30638     
C           -3.46041    -6.45839    1.49095     
C           -2.79448    -7.15922    2.67553     
C           -2.12855    -7.86005    3.8601      
C           -1.46262    -8.56087    5.04468     
C           -0.79669    -9.2617     6.22926     
H           -154.30765  0.0         0.0         
H           1.09        0.0         0.0         
