712

C           -131.75932  -0.48406    0.00114     
C           -132.25781  -1.78964    -0.00934    
S           -133.04837  0.72265     0.01311     
C           -135.6666   -0.69259    0.00391     
C           -135.89022  -2.18501    -0.00826    
N           -134.63354  -2.78742    -0.01509    
C           -133.65626  -1.79432    -0.00764    
C           -134.25465  -0.5302     0.00387     
C           -136.71227  0.20402     0.01241     
C           -136.48773  1.69693     0.02596     
N           -137.74354  2.2998      0.0318      
C           -138.72087  1.30635     0.0242      
C           -138.12456  0.04296     0.01173     
O           -136.95701  -2.78594    -0.01147    
O           -135.41997  2.29662     0.03073     
C           -134.42027  -4.21881    -0.02614    
C           -137.95654  3.73135     0.04454     
H           -137.8274   3.74094     1.12682     
H           -138.08568  3.72177     -1.03774    
C           -138.18155  5.24365     0.05799     
H           -134.54928  -4.22968    -1.10842    
H           -134.29126  -4.20794    1.05614     
C           -134.19495  -5.73108    -0.03781    
H           -131.62817  -2.67182    -0.01769    
H           -140.75208  2.18441     0.00687     
S           -139.33504  -1.20772    0.00392     
C           -140.12199  1.3026      0.01703     
C           -140.61858  0.0         0.0         
C           -127.84873  0.0         0.0         
C           -128.45023  1.25034     0.01098     
S           -129.08056  -1.25656    -0.00858    
H           -130.47821  2.09818     0.02055     
H           -127.88167  2.17412     0.01781     
C           -129.85662  1.20926     0.0125      
C           -130.38401  -0.07434    0.00277     
C           -133.96965  -7.24334    -0.04949    
C           -133.74434  -8.7556     -0.06116    
C           -133.51902  -10.26786   -0.07284    
C           -133.29371  -11.78012   -0.08451    
C           -133.0684   -13.29239   -0.09618    
C           -132.84309  -14.80465   -0.10786    
C           -132.61777  -16.31692   -0.11953    
C           -132.39246  -17.82918   -0.1312     
C           -132.16715  -19.34144   -0.14288    
C           -131.94183  -20.85371   -0.15455    
C           -134.37594  -5.74632    -1.55599    
C           -134.55691  -5.76157    -3.07417    
C           -134.73788  -5.77681    -4.59234    
C           -134.91886  -5.79204    -6.11051    
C           -135.09984  -5.80729    -7.62869    
C           -135.28081  -5.82253    -9.14686    
C           -135.46179  -5.83778    -10.66504   
C           -135.64276  -5.85302    -12.18322   
C           -138.40655  6.75594     0.07144     
C           -138.63156  8.26823     0.08489     
C           -138.85657  9.78053     0.09834     
C           -139.08158  11.29282    0.11179     
C           -139.30659  12.80512    0.12524     
C           -139.53159  14.31741    0.13869     
C           -139.7566   15.8297     0.15214     
C           -139.98161  17.342      0.16559     
C           -140.20662  18.85429    0.17904     
C           -140.43162  20.36658    0.19249     
C           -138.0004   5.2571      1.57616     
C           -137.81925  5.27055     3.09433     
C           -137.6381   5.284       4.6125      
C           -137.45695  5.29745     6.13067     
C           -137.2758   5.3109      7.64884     
C           -137.09466  5.32435     9.16702     
C           -136.91351  5.3378      10.68519    
C           -136.73236  5.35125     12.20336    
C           -117.5539   -0.48405    0.0039      
C           -118.05239  -1.78967    0.00086     
S           -118.84296  0.72271     0.009       
C           -121.46118  -0.69255    0.00786     
C           -121.68481  -2.18502    0.00419     
N           -120.42812  -2.78746    0.0008      
C           -119.45085  -1.79434    0.00258     
C           -120.04924  -0.53017    0.00689     
C           -122.50685  0.20409     0.01125     
C           -122.28232  1.69705     0.01629     
N           -123.53813  2.29994     0.0187      
C           -124.51545  1.30646     0.01675     
C           -123.91914  0.04302     0.01148     
O           -122.75159  -2.78596    0.0044      
O           -121.21456  2.29676     0.01764     
C           -120.21486  -4.21889    -0.0021     
C           -123.75112  3.73155     0.02327     
H           -123.62199  3.7473      1.10548     
H           -123.88026  3.71579     -1.05893    
C           -123.97613  5.24389     0.02811     
H           -120.34387  -4.23592    -1.08431    
H           -120.08584  -4.20185    1.0801      
C           -119.98954  -5.7312     -0.00516    
H           -117.42275  -2.67188    -0.00247    
H           -126.54666  2.18442     -0.00558    
S           -125.12963  -1.20767    0.01081     
C           -125.91657  1.30268     0.00961     
C           -126.41316  0.0         0.0         
C           -113.64332  0.0         0.0         
C           -114.24481  1.25038     0.00386     
S           -114.87514  -1.25659    -0.00142    
H           -116.2728   2.09826     0.00859     
H           -113.67626  2.17419     0.00543     
C           -115.6512   1.20931     0.0056      
C           -116.1786   -0.07432    0.00319     
C           -119.76423  -7.24351    -0.00821    
C           -119.53892  -8.7558     -0.01127    
C           -119.3136   -10.26811   -0.01433    
C           -119.08829  -11.78041   -0.01738    
C           -118.86299  -13.29272   -0.02044    
C           -118.63768  -14.80503   -0.0235     
C           -118.41236  -16.31733   -0.02656    
C           -118.18705  -17.82964   -0.02961    
C           -117.96174  -19.34194   -0.03267    
C           -117.73642  -20.85425   -0.03573    
C           -120.17052  -5.75509    -1.52322    
C           -120.35149  -5.77899    -3.04129    
C           -120.53247  -5.80288    -4.55935    
C           -120.71345  -5.82677    -6.07741    
C           -120.89442  -5.85066    -7.59547    
C           -121.07539  -5.87456    -9.11354    
C           -121.25637  -5.89845    -10.6316    
C           -121.43735  -5.92234    -12.14967   
C           -124.20114  6.75624     0.03294     
C           -124.42615  8.26858     0.03777     
C           -124.65115  9.78093     0.04261     
C           -124.87616  11.29328    0.04744     
C           -125.10117  12.80562    0.05227     
C           -125.32618  14.31797    0.0571      
C           -125.55119  15.83031    0.06194     
C           -125.77619  17.34266    0.06677     
C           -126.0012   18.855      0.0716      
C           -126.22621  20.36735    0.07644     
C           -123.79498  5.26599     1.54618     
C           -123.61383  5.28809     3.06425     
C           -123.43269  5.31019     4.58232     
C           -123.25154  5.33229     6.10039     
C           -123.07039  5.35439     7.61846     
C           -122.88924  5.37649     9.13653     
C           -122.70809  5.39859     10.6546     
C           -122.52694  5.4207      12.17267    
C           -103.34849  -0.48405    0.0039      
C           -103.84698  -1.78967    0.00086     
S           -104.63754  0.72271     0.009       
C           -107.25577  -0.69255    0.00786     
C           -107.47939  -2.18502    0.00419     
N           -106.22271  -2.78746    0.0008      
C           -105.24543  -1.79434    0.00258     
C           -105.84382  -0.53017    0.00689     
C           -108.30144  0.20409     0.01125     
C           -108.0769   1.69705     0.01629     
N           -109.33271  2.29994     0.0187      
C           -110.31004  1.30646     0.01675     
C           -109.71373  0.04302     0.01148     
O           -108.54618  -2.78596    0.0044      
O           -107.00914  2.29676     0.01764     
C           -106.00944  -4.21889    -0.0021     
C           -109.54571  3.73155     0.02327     
H           -109.41657  3.7473      1.10548     
H           -109.67485  3.71579     -1.05893    
C           -109.77072  5.24389     0.02811     
H           -106.13845  -4.23592    -1.08431    
H           -105.88043  -4.20185    1.0801      
C           -105.78412  -5.7312     -0.00516    
H           -103.21734  -2.67188    -0.00247    
H           -112.34125  2.18442     -0.00558    
S           -110.92421  -1.20767    0.01081     
C           -111.71116  1.30268     0.00961     
C           -112.20775  0.0         0.0         
C           -99.4379    0.0         0.0         
C           -100.0394   1.25038     0.00386     
S           -100.66973  -1.25659    -0.00142    
H           -102.06738  2.09826     0.00859     
H           -99.47084   2.17419     0.00543     
C           -101.44579  1.20931     0.0056      
C           -101.97318  -0.07432    0.00319     
C           -105.55882  -7.24351    -0.00821    
C           -105.33351  -8.7558     -0.01127    
C           -105.10819  -10.26811   -0.01433    
C           -104.88288  -11.78041   -0.01738    
C           -104.65757  -13.29272   -0.02044    
C           -104.43226  -14.80503   -0.0235     
C           -104.20694  -16.31733   -0.02656    
C           -103.98163  -17.82964   -0.02961    
C           -103.75632  -19.34194   -0.03267    
C           -103.531    -20.85425   -0.03573    
C           -105.96511  -5.75509    -1.52322    
C           -106.14608  -5.77899    -3.04129    
C           -106.32705  -5.80288    -4.55935    
C           -106.50803  -5.82677    -6.07741    
C           -106.68901  -5.85066    -7.59547    
C           -106.86998  -5.87456    -9.11354    
C           -107.05096  -5.89845    -10.6316    
C           -107.23193  -5.92234    -12.14967   
C           -109.99572  6.75624     0.03294     
C           -110.22073  8.26858     0.03777     
C           -110.44574  9.78093     0.04261     
C           -110.67075  11.29328    0.04744     
C           -110.89576  12.80562    0.05227     
C           -111.12076  14.31797    0.0571      
C           -111.34577  15.83031    0.06194     
C           -111.57078  17.34266    0.06677     
C           -111.79579  18.855      0.0716      
C           -112.02079  20.36735    0.07644     
C           -109.58957  5.26599     1.54618     
C           -109.40842  5.28809     3.06425     
C           -109.22727  5.31019     4.58232     
C           -109.04612  5.33229     6.10039     
C           -108.86497  5.35439     7.61846     
C           -108.68383  5.37649     9.13653     
C           -108.50268  5.39859     10.6546     
C           -108.32153  5.4207      12.17267    
C           -89.14307   -0.48405    0.0039      
C           -89.64156   -1.78967    0.00086     
S           -90.43213   0.72271     0.009       
C           -93.05035   -0.69255    0.00786     
C           -93.27398   -2.18502    0.00419     
N           -92.01729   -2.78746    0.0008      
C           -91.04002   -1.79434    0.00258     
C           -91.63841   -0.53017    0.00689     
C           -94.09602   0.20409     0.01125     
C           -93.87149   1.69705     0.01629     
N           -95.1273    2.29994     0.0187      
C           -96.10462   1.30646     0.01675     
C           -95.50831   0.04302     0.01148     
O           -94.34076   -2.78596    0.0044      
O           -92.80373   2.29676     0.01764     
C           -91.80403   -4.21889    -0.0021     
C           -95.34029   3.73155     0.02327     
H           -95.21116   3.7473      1.10548     
H           -95.46943   3.71579     -1.05893    
C           -95.5653    5.24389     0.02811     
H           -91.93304   -4.23592    -1.08431    
H           -91.67501   -4.20185    1.0801      
C           -91.57871   -5.7312     -0.00516    
H           -89.01192   -2.67188    -0.00247    
H           -98.13583   2.18442     -0.00558    
S           -96.7188    -1.20767    0.01081     
C           -97.50574   1.30268     0.00961     
C           -98.00233   0.0         0.0         
C           -85.23249   0.0         0.0         
C           -85.83398   1.25038     0.00386     
S           -86.46431   -1.25659    -0.00142    
H           -87.86197   2.09826     0.00859     
H           -85.26543   2.17419     0.00543     
C           -87.24037   1.20931     0.0056      
C           -87.76777   -0.07432    0.00319     
C           -91.3534    -7.24351    -0.00821    
C           -91.12809   -8.7558     -0.01127    
C           -90.90277   -10.26811   -0.01433    
C           -90.67746   -11.78041   -0.01738    
C           -90.45216   -13.29272   -0.02044    
C           -90.22685   -14.80503   -0.0235     
C           -90.00153   -16.31733   -0.02656    
C           -89.77622   -17.82964   -0.02961    
C           -89.55091   -19.34194   -0.03267    
C           -89.32559   -20.85425   -0.03573    
C           -91.75969   -5.75509    -1.52322    
C           -91.94066   -5.77899    -3.04129    
C           -92.12164   -5.80288    -4.55935    
C           -92.30262   -5.82677    -6.07741    
C           -92.48359   -5.85066    -7.59547    
C           -92.66456   -5.87456    -9.11354    
C           -92.84554   -5.89845    -10.6316    
C           -93.02652   -5.92234    -12.14967   
C           -95.79031   6.75624     0.03294     
C           -96.01532   8.26858     0.03777     
C           -96.24032   9.78093     0.04261     
C           -96.46533   11.29328    0.04744     
C           -96.69034   12.80562    0.05227     
C           -96.91535   14.31797    0.0571      
C           -97.14036   15.83031    0.06194     
C           -97.36536   17.34266    0.06677     
C           -97.59037   18.855      0.0716      
C           -97.81538   20.36735    0.07644     
C           -95.38415   5.26599     1.54618     
C           -95.203     5.28809     3.06425     
C           -95.02186   5.31019     4.58232     
C           -94.84071   5.33229     6.10039     
C           -94.65956   5.35439     7.61846     
C           -94.47841   5.37649     9.13653     
C           -94.29726   5.39859     10.6546     
C           -94.11611   5.4207      12.17267    
C           -74.93766   -0.48405    0.0039      
C           -75.43615   -1.78967    0.00086     
S           -76.22671   0.72271     0.009       
C           -78.84494   -0.69255    0.00786     
C           -79.06856   -2.18502    0.00419     
N           -77.81188   -2.78746    0.0008      
C           -76.8346    -1.79434    0.00258     
C           -77.43299   -0.53017    0.00689     
C           -79.89061   0.20409     0.01125     
C           -79.66607   1.69705     0.01629     
N           -80.92188   2.29994     0.0187      
C           -81.89921   1.30646     0.01675     
C           -81.3029    0.04302     0.01148     
O           -80.13535   -2.78596    0.0044      
O           -78.59831   2.29676     0.01764     
C           -77.59861   -4.21889    -0.0021     
C           -81.13488   3.73155     0.02327     
H           -81.00574   3.7473      1.10548     
H           -81.26402   3.71579     -1.05893    
C           -81.35989   5.24389     0.02811     
H           -77.72762   -4.23592    -1.08431    
H           -77.4696    -4.20185    1.0801      
C           -77.37329   -5.7312     -0.00516    
H           -74.80651   -2.67188    -0.00247    
H           -83.93042   2.18442     -0.00558    
S           -82.51338   -1.20767    0.01081     
C           -83.30033   1.30268     0.00961     
C           -83.79692   0.0         0.0         
C           -71.02707   0.0         0.0         
C           -71.62857   1.25038     0.00386     
S           -72.2589    -1.25659    -0.00142    
H           -73.65655   2.09826     0.00859     
H           -71.06001   2.17419     0.00543     
C           -73.03496   1.20931     0.0056      
C           -73.56235   -0.07432    0.00319     
C           -77.14799   -7.24351    -0.00821    
C           -76.92268   -8.7558     -0.01127    
C           -76.69736   -10.26811   -0.01433    
C           -76.47205   -11.78041   -0.01738    
C           -76.24674   -13.29272   -0.02044    
C           -76.02143   -14.80503   -0.0235     
C           -75.79611   -16.31733   -0.02656    
C           -75.5708    -17.82964   -0.02961    
C           -75.34549   -19.34194   -0.03267    
C           -75.12017   -20.85425   -0.03573    
C           -77.55428   -5.75509    -1.52322    
C           -77.73525   -5.77899    -3.04129    
C           -77.91622   -5.80288    -4.55935    
C           -78.0972    -5.82677    -6.07741    
C           -78.27818   -5.85066    -7.59547    
C           -78.45915   -5.87456    -9.11354    
C           -78.64013   -5.89845    -10.6316    
C           -78.8211    -5.92234    -12.14967   
C           -81.58489   6.75624     0.03294     
C           -81.8099    8.26858     0.03777     
C           -82.03491   9.78093     0.04261     
C           -82.25992   11.29328    0.04744     
C           -82.48493   12.80562    0.05227     
C           -82.70993   14.31797    0.0571      
C           -82.93494   15.83031    0.06194     
C           -83.15995   17.34266    0.06677     
C           -83.38496   18.855      0.0716      
C           -83.60996   20.36735    0.07644     
C           -81.17874   5.26599     1.54618     
C           -80.99759   5.28809     3.06425     
C           -80.81644   5.31019     4.58232     
C           -80.63529   5.33229     6.10039     
C           -80.45414   5.35439     7.61846     
C           -80.273     5.37649     9.13653     
C           -80.09185   5.39859     10.6546     
C           -79.9107    5.4207      12.17267    
C           -60.73224   -0.48405    0.0039      
C           -61.23073   -1.78967    0.00086     
S           -62.0213    0.72271     0.009       
C           -64.63952   -0.69255    0.00786     
C           -64.86315   -2.18502    0.00419     
N           -63.60646   -2.78746    0.0008      
C           -62.62919   -1.79434    0.00258     
C           -63.22758   -0.53017    0.00689     
C           -65.68519   0.20409     0.01125     
C           -65.46066   1.69705     0.01629     
N           -66.71647   2.29994     0.0187      
C           -67.69379   1.30646     0.01675     
C           -67.09748   0.04302     0.01148     
O           -65.92993   -2.78596    0.0044      
O           -64.3929    2.29676     0.01764     
C           -63.3932    -4.21889    -0.0021     
C           -66.92946   3.73155     0.02327     
H           -66.80033   3.7473      1.10548     
H           -67.0586    3.71579     -1.05893    
C           -67.15447   5.24389     0.02811     
H           -63.52221   -4.23592    -1.08431    
H           -63.26418   -4.20185    1.0801      
C           -63.16788   -5.7312     -0.00516    
H           -60.60109   -2.67188    -0.00247    
H           -69.725     2.18442     -0.00558    
S           -68.30797   -1.20767    0.01081     
C           -69.09491   1.30268     0.00961     
C           -69.5915    0.0         0.0         
C           -56.82166   0.0         0.0         
C           -57.42315   1.25038     0.00386     
S           -58.05348   -1.25659    -0.00142    
H           -59.45114   2.09826     0.00859     
H           -56.8546    2.17419     0.00543     
C           -58.82954   1.20931     0.0056      
C           -59.35694   -0.07432    0.00319     
C           -62.94257   -7.24351    -0.00821    
C           -62.71726   -8.7558     -0.01127    
C           -62.49194   -10.26811   -0.01433    
C           -62.26663   -11.78041   -0.01738    
C           -62.04133   -13.29272   -0.02044    
C           -61.81602   -14.80503   -0.0235     
C           -61.5907    -16.31733   -0.02656    
C           -61.36539   -17.82964   -0.02961    
C           -61.14008   -19.34194   -0.03267    
C           -60.91476   -20.85425   -0.03573    
C           -63.34886   -5.75509    -1.52322    
C           -63.52983   -5.77899    -3.04129    
C           -63.71081   -5.80288    -4.55935    
C           -63.89179   -5.82677    -6.07741    
C           -64.07276   -5.85066    -7.59547    
C           -64.25373   -5.87456    -9.11354    
C           -64.43471   -5.89845    -10.6316    
C           -64.61569   -5.92234    -12.14967   
C           -67.37948   6.75624     0.03294     
C           -67.60449   8.26858     0.03777     
C           -67.82949   9.78093     0.04261     
C           -68.0545    11.29328    0.04744     
C           -68.27951   12.80562    0.05227     
C           -68.50452   14.31797    0.0571      
C           -68.72953   15.83031    0.06194     
C           -68.95453   17.34266    0.06677     
C           -69.17954   18.855      0.0716      
C           -69.40455   20.36735    0.07644     
C           -66.97332   5.26599     1.54618     
C           -66.79217   5.28809     3.06425     
C           -66.61103   5.31019     4.58232     
C           -66.42988   5.33229     6.10039     
C           -66.24873   5.35439     7.61846     
C           -66.06758   5.37649     9.13653     
C           -65.88643   5.39859     10.6546     
C           -65.70528   5.4207      12.17267    
C           -46.52683   -0.48405    0.0039      
C           -47.02532   -1.78967    0.00086     
S           -47.81588   0.72271     0.009       
C           -50.43411   -0.69255    0.00786     
C           -50.65773   -2.18502    0.00419     
N           -49.40105   -2.78746    0.0008      
C           -48.42377   -1.79434    0.00258     
C           -49.02216   -0.53017    0.00689     
C           -51.47978   0.20409     0.01125     
C           -51.25524   1.69705     0.01629     
N           -52.51105   2.29994     0.0187      
C           -53.48838   1.30646     0.01675     
C           -52.89207   0.04302     0.01148     
O           -51.72452   -2.78596    0.0044      
O           -50.18748   2.29676     0.01764     
C           -49.18778   -4.21889    -0.0021     
C           -52.72405   3.73155     0.02327     
H           -52.59491   3.7473      1.10548     
H           -52.85319   3.71579     -1.05893    
C           -52.94906   5.24389     0.02811     
H           -49.31679   -4.23592    -1.08431    
H           -49.05877   -4.20185    1.0801      
C           -48.96246   -5.7312     -0.00516    
H           -46.39568   -2.67188    -0.00247    
H           -55.51959   2.18442     -0.00558    
S           -54.10255   -1.20767    0.01081     
C           -54.8895    1.30268     0.00961     
C           -55.38609   0.0         0.0         
C           -42.61624   0.0         0.0         
C           -43.21774   1.25038     0.00386     
S           -43.84807   -1.25659    -0.00142    
H           -45.24572   2.09826     0.00859     
H           -42.64918   2.17419     0.00543     
C           -44.62413   1.20931     0.0056      
C           -45.15152   -0.07432    0.00319     
C           -48.73716   -7.24351    -0.00821    
C           -48.51185   -8.7558     -0.01127    
C           -48.28653   -10.26811   -0.01433    
C           -48.06122   -11.78041   -0.01738    
C           -47.83591   -13.29272   -0.02044    
C           -47.6106    -14.80503   -0.0235     
C           -47.38528   -16.31733   -0.02656    
C           -47.15997   -17.82964   -0.02961    
C           -46.93466   -19.34194   -0.03267    
C           -46.70934   -20.85425   -0.03573    
C           -49.14345   -5.75509    -1.52322    
C           -49.32442   -5.77899    -3.04129    
C           -49.50539   -5.80288    -4.55935    
C           -49.68637   -5.82677    -6.07741    
C           -49.86735   -5.85066    -7.59547    
C           -50.04832   -5.87456    -9.11354    
C           -50.2293    -5.89845    -10.6316    
C           -50.41027   -5.92234    -12.14967   
C           -53.17406   6.75624     0.03294     
C           -53.39907   8.26858     0.03777     
C           -53.62408   9.78093     0.04261     
C           -53.84909   11.29328    0.04744     
C           -54.0741    12.80562    0.05227     
C           -54.2991    14.31797    0.0571      
C           -54.52411   15.83031    0.06194     
C           -54.74912   17.34266    0.06677     
C           -54.97413   18.855      0.0716      
C           -55.19913   20.36735    0.07644     
C           -52.76791   5.26599     1.54618     
C           -52.58676   5.28809     3.06425     
C           -52.40561   5.31019     4.58232     
C           -52.22446   5.33229     6.10039     
C           -52.04331   5.35439     7.61846     
C           -51.86217   5.37649     9.13653     
C           -51.68102   5.39859     10.6546     
C           -51.49987   5.4207      12.17267    
C           -32.32141   -0.48405    0.0039      
C           -32.8199    -1.78967    0.00086     
S           -33.61047   0.72271     0.009       
C           -36.22869   -0.69255    0.00786     
C           -36.45232   -2.18502    0.00419     
N           -35.19563   -2.78746    0.0008      
C           -34.21836   -1.79434    0.00258     
C           -34.81675   -0.53017    0.00689     
C           -37.27436   0.20409     0.01125     
C           -37.04983   1.69705     0.01629     
N           -38.30564   2.29994     0.0187      
C           -39.28296   1.30646     0.01675     
C           -38.68665   0.04302     0.01148     
O           -37.5191    -2.78596    0.0044      
O           -35.98207   2.29676     0.01764     
C           -34.98237   -4.21889    -0.0021     
C           -38.51863   3.73155     0.02327     
H           -38.3895    3.7473      1.10548     
H           -38.64777   3.71579     -1.05893    
C           -38.74364   5.24389     0.02811     
H           -35.11138   -4.23592    -1.08431    
H           -34.85335   -4.20185    1.0801      
C           -34.75705   -5.7312     -0.00516    
H           -32.19026   -2.67188    -0.00247    
H           -41.31417   2.18442     -0.00558    
S           -39.89714   -1.20767    0.01081     
C           -40.68408   1.30268     0.00961     
C           -41.18067   0.0         0.0         
C           -28.41083   0.0         0.0         
C           -29.01232   1.25038     0.00386     
S           -29.64265   -1.25659    -0.00142    
H           -31.04031   2.09826     0.00859     
H           -28.44377   2.17419     0.00543     
C           -30.41871   1.20931     0.0056      
C           -30.94611   -0.07432    0.00319     
C           -34.53174   -7.24351    -0.00821    
C           -34.30643   -8.7558     -0.01127    
C           -34.08111   -10.26811   -0.01433    
C           -33.8558    -11.78041   -0.01738    
C           -33.6305    -13.29272   -0.02044    
C           -33.40519   -14.80503   -0.0235     
C           -33.17987   -16.31733   -0.02656    
C           -32.95456   -17.82964   -0.02961    
C           -32.72925   -19.34194   -0.03267    
C           -32.50393   -20.85425   -0.03573    
C           -34.93803   -5.75509    -1.52322    
C           -35.119     -5.77899    -3.04129    
C           -35.29998   -5.80288    -4.55935    
C           -35.48096   -5.82677    -6.07741    
C           -35.66193   -5.85066    -7.59547    
C           -35.8429    -5.87456    -9.11354    
C           -36.02388   -5.89845    -10.6316    
C           -36.20486   -5.92234    -12.14967   
C           -38.96865   6.75624     0.03294     
C           -39.19366   8.26858     0.03777     
C           -39.41867   9.78093     0.04261     
C           -39.64367   11.29328    0.04744     
C           -39.86868   12.80562    0.05227     
C           -40.09369   14.31797    0.0571      
C           -40.3187    15.83031    0.06194     
C           -40.5437    17.34266    0.06677     
C           -40.76871   18.855      0.0716      
C           -40.99372   20.36735    0.07644     
C           -38.56249   5.26599     1.54618     
C           -38.38134   5.28809     3.06425     
C           -38.2002    5.31019     4.58232     
C           -38.01905   5.33229     6.10039     
C           -37.8379    5.35439     7.61846     
C           -37.65675   5.37649     9.13653     
C           -37.4756    5.39859     10.6546     
C           -37.29445   5.4207      12.17267    
C           -18.116     -0.48405    0.0039      
C           -18.61449   -1.78967    0.00086     
S           -19.40505   0.72271     0.009       
C           -22.02328   -0.69255    0.00786     
C           -22.2469    -2.18502    0.00419     
N           -20.99022   -2.78746    0.0008      
C           -20.01294   -1.79434    0.00258     
C           -20.61133   -0.53017    0.00689     
C           -23.06895   0.20409     0.01125     
C           -22.84441   1.69705     0.01629     
N           -24.10022   2.29994     0.0187      
C           -25.07755   1.30646     0.01675     
C           -24.48124   0.04302     0.01148     
O           -23.31369   -2.78596    0.0044      
O           -21.77665   2.29676     0.01764     
C           -20.77695   -4.21889    -0.0021     
C           -24.31322   3.73155     0.02327     
H           -24.18408   3.7473      1.10548     
H           -24.44236   3.71579     -1.05893    
C           -24.53823   5.24389     0.02811     
H           -20.90596   -4.23592    -1.08431    
H           -20.64794   -4.20185    1.0801      
C           -20.55163   -5.7312     -0.00516    
H           -17.98485   -2.67188    -0.00247    
H           -27.10876   2.18442     -0.00558    
S           -25.69172   -1.20767    0.01081     
C           -26.47867   1.30268     0.00961     
C           -26.97526   0.0         0.0         
C           -14.20541   0.0         0.0         
C           -14.80691   1.25038     0.00386     
S           -15.43724   -1.25659    -0.00142    
H           -16.83489   2.09826     0.00859     
H           -14.23835   2.17419     0.00543     
C           -16.2133    1.20931     0.0056      
C           -16.74069   -0.07432    0.00319     
C           -20.32633   -7.24351    -0.00821    
C           -20.10102   -8.7558     -0.01127    
C           -19.8757    -10.26811   -0.01433    
C           -19.65039   -11.78041   -0.01738    
C           -19.42508   -13.29272   -0.02044    
C           -19.19977   -14.80503   -0.0235     
C           -18.97445   -16.31733   -0.02656    
C           -18.74914   -17.82964   -0.02961    
C           -18.52383   -19.34194   -0.03267    
C           -18.29851   -20.85425   -0.03573    
C           -20.73262   -5.75509    -1.52322    
C           -20.91359   -5.77899    -3.04129    
C           -21.09456   -5.80288    -4.55935    
C           -21.27554   -5.82677    -6.07741    
C           -21.45652   -5.85066    -7.59547    
C           -21.63749   -5.87456    -9.11354    
C           -21.81847   -5.89845    -10.6316    
C           -21.99944   -5.92234    -12.14967   
C           -24.76323   6.75624     0.03294     
C           -24.98824   8.26858     0.03777     
C           -25.21325   9.78093     0.04261     
C           -25.43826   11.29328    0.04744     
C           -25.66327   12.80562    0.05227     
C           -25.88827   14.31797    0.0571      
C           -26.11328   15.83031    0.06194     
C           -26.33829   17.34266    0.06677     
C           -26.5633    18.855      0.0716      
C           -26.7883    20.36735    0.07644     
C           -24.35708   5.26599     1.54618     
C           -24.17593   5.28809     3.06425     
C           -23.99478   5.31019     4.58232     
C           -23.81363   5.33229     6.10039     
C           -23.63248   5.35439     7.61846     
C           -23.45134   5.37649     9.13653     
C           -23.27019   5.39859     10.6546     
C           -23.08904   5.4207      12.17267    
C           -3.91058    -0.48405    0.0039      
C           -4.40907    -1.78967    0.00086     
S           -5.19964    0.72271     0.009       
C           -7.81786    -0.69255    0.00786     
C           -8.04149    -2.18502    0.00419     
N           -6.7848     -2.78746    0.0008      
C           -5.80753    -1.79434    0.00258     
C           -6.40592    -0.53017    0.00689     
C           -8.86353    0.20409     0.01125     
C           -8.639      1.69705     0.01629     
N           -9.89481    2.29994     0.0187      
C           -10.87213   1.30646     0.01675     
C           -10.27582   0.04302     0.01148     
O           -9.10827    -2.78596    0.0044      
O           -7.57124    2.29676     0.01764     
C           -6.57154    -4.21889    -0.0021     
C           -10.1078    3.73155     0.02327     
H           -9.97867    3.7473      1.10548     
H           -10.23694   3.71579     -1.05893    
C           -10.33281   5.24389     0.02811     
H           -6.70055    -4.23592    -1.08431    
H           -6.44252    -4.20185    1.0801      
C           -6.34622    -5.7312     -0.00516    
H           -3.77943    -2.67188    -0.00247    
H           -12.90334   2.18442     -0.00558    
S           -11.48631   -1.20767    0.01081     
C           -12.27325   1.30268     0.00961     
C           -12.76984   0.0         0.0         
C           0.0         0.0         0.0         
C           -0.60149    1.25038     0.00386     
S           -1.23182    -1.25659    -0.00142    
H           -2.62948    2.09826     0.00859     
H           -0.03294    2.17419     0.00543     
C           -2.00788    1.20931     0.0056      
C           -2.53528    -0.07432    0.00319     
C           -6.12091    -7.24351    -0.00821    
C           -5.8956     -8.7558     -0.01127    
C           -5.67028    -10.26811   -0.01433    
C           -5.44497    -11.78041   -0.01738    
C           -5.21967    -13.29272   -0.02044    
C           -4.99436    -14.80503   -0.0235     
C           -4.76904    -16.31733   -0.02656    
C           -4.54373    -17.82964   -0.02961    
C           -4.31842    -19.34194   -0.03267    
C           -4.0931     -20.85425   -0.03573    
C           -6.5272     -5.75509    -1.52322    
C           -6.70817    -5.77899    -3.04129    
C           -6.88915    -5.80288    -4.55935    
C           -7.07013    -5.82677    -6.07741    
C           -7.2511     -5.85066    -7.59547    
C           -7.43207    -5.87456    -9.11354    
C           -7.61305    -5.89845    -10.6316    
C           -7.79403    -5.92234    -12.14967   
C           -10.55782   6.75624     0.03294     
C           -10.78283   8.26858     0.03777     
C           -11.00784   9.78093     0.04261     
C           -11.23284   11.29328    0.04744     
C           -11.45785   12.80562    0.05227     
C           -11.68286   14.31797    0.0571      
C           -11.90787   15.83031    0.06194     
C           -12.13287   17.34266    0.06677     
C           -12.35788   18.855      0.0716      
C           -12.58289   20.36735    0.07644     
C           -10.15166   5.26599     1.54618     
C           -9.97052    5.28809     3.06425     
C           -9.78937    5.31019     4.58232     
C           -9.60822    5.33229     6.10039     
C           -9.42707    5.35439     7.61846     
C           -9.24592    5.37649     9.13653     
C           -9.06477    5.39859     10.6546     
C           -8.88362    5.4207      12.17267    
H           -141.70858  0.0         0.0         
H           1.09        0.0         0.0         
