73

C           -3.91058    -0.48406    0.00114     
C           -4.40907    -1.78964    -0.00934    
S           -5.19964    0.72265     0.01311     
C           -7.81786    -0.69259    0.00391     
C           -8.04149    -2.18501    -0.00826    
N           -6.7848     -2.78742    -0.01509    
C           -5.80753    -1.79432    -0.00764    
C           -6.40592    -0.5302     0.00387     
C           -8.86353    0.20402     0.01241     
C           -8.639      1.69693     0.02596     
N           -9.89481    2.2998      0.0318      
C           -10.87213   1.30635     0.0242      
C           -10.27582   0.04296     0.01173     
O           -9.10827    -2.78594    -0.01147    
O           -7.57124    2.29662     0.03073     
C           -6.57154    -4.21881    -0.02614    
C           -10.1078    3.73135     0.04454     
H           -9.97867    3.74094     1.12682     
H           -10.23694   3.72177     -1.03774    
C           -10.33281   5.24365     0.05799     
H           -6.70055    -4.22968    -1.10842    
H           -6.44252    -4.20794    1.05614     
C           -6.34622    -5.73108    -0.03781    
H           -3.77943    -2.67182    -0.01769    
H           -12.90334   2.18441     0.00687     
S           -11.48631   -1.20772    0.00392     
C           -12.27325   1.3026      0.01703     
C           -12.76984   -0.0        -0.0        
C           0.0         0.0         0.0         
C           -0.60149    1.25034     0.01098     
S           -1.23182    -1.25656    -0.00858    
H           -2.62948    2.09818     0.02055     
H           -0.03294    2.17412     0.01781     
C           -2.00788    1.20926     0.0125      
C           -2.53528    -0.07434    0.00277     
C           -6.12091    -7.24334    -0.04949    
C           -5.8956     -8.7556     -0.06116    
C           -5.67028    -10.26786   -0.07284    
C           -5.44497    -11.78012   -0.08451    
C           -5.21967    -13.29239   -0.09618    
C           -4.99436    -14.80465   -0.10786    
C           -4.76904    -16.31692   -0.11953    
C           -4.54373    -17.82918   -0.1312     
C           -4.31842    -19.34144   -0.14288    
C           -4.0931     -20.85371   -0.15455    
C           -6.5272     -5.74632    -1.55599    
C           -6.70817    -5.76157    -3.07417    
C           -6.88915    -5.77681    -4.59234    
C           -7.07013    -5.79204    -6.11051    
C           -7.2511     -5.80729    -7.62869    
C           -7.43207    -5.82253    -9.14686    
C           -7.61305    -5.83778    -10.66504   
C           -7.79403    -5.85302    -12.18322   
C           -10.55782   6.75594     0.07144     
C           -10.78283   8.26823     0.08489     
C           -11.00784   9.78053     0.09834     
C           -11.23284   11.29282    0.11179     
C           -11.45785   12.80512    0.12524     
C           -11.68286   14.31741    0.13869     
C           -11.90787   15.8297     0.15214     
C           -12.13287   17.342      0.16559     
C           -12.35788   18.85429    0.17904     
C           -12.58289   20.36658    0.19249     
C           -10.15166   5.2571      1.57616     
C           -9.97052    5.27055     3.09433     
C           -9.78937    5.284       4.6125      
C           -9.60822    5.29745     6.13067     
C           -9.42707    5.3109      7.64884     
C           -9.24592    5.32435     9.16702     
C           -9.06477    5.3378      10.68519    
C           -8.88362    5.35125     12.20336    
H           -13.85984   -0.0        -0.0        
H           1.09        0.0         0.0         
