89

C           -3.88513    -0.59581    -0.00382    
C           -4.7154     0.49581     0.00297     
S           -4.77403    -2.13745    -0.01336    
C           -6.29446    -1.27204    -0.00798    
C           -6.10286    0.15176     0.00085     
C           -7.23735    0.98598     0.00601     
C           -8.53481    0.41414     0.00248     
C           -8.70796    -1.01033    -0.00634    
C           -7.55882    -1.84351    -0.01151    
C           -9.68366    1.25003     0.00768     
C           -10.94674   0.67698     0.00414     
C           -11.13962   -0.74933    -0.00469    
C           -10.00583   -1.58491    -0.00988    
C           -10.16472   -3.05945    -0.01902    
N           -8.98531    -3.82769    -0.02372    
C           -7.69601    -3.30891    -0.02057    
C           -7.08304    2.45945     0.01515     
N           -8.25464    3.23122     0.01997     
C           -9.55033    2.71845     0.01678     
O           -11.25516   -3.61888    -0.02241    
O           -6.72135    -4.05789    -0.02516    
O           -5.99936    3.03266     0.01877     
O           -10.53337   3.45545     0.02145     
H           -12.86964   -2.11499    -0.01312    
H           -4.37599    1.52145     0.0093      
C           -9.09655    -5.29165    -0.03269    
C           -8.07209    4.68799     0.02908     
H           -9.39969    -5.27503    1.01417     
C           -9.21238    -6.81623    -0.04205    
H           -8.7934     -5.30826    -1.07956    
H           -8.32438    4.71298     1.08918     
H           -7.81979    4.663       -1.03103    
C           -7.88197    6.20509     0.03856     
S           -12.46857   1.54049     0.00948     
C           -12.52757   -1.09075    -0.00677    
C           -13.35753   -0.0        -0.0        
C           0.0         0.0         0.0         
C           -0.23173    -1.36675    -0.00903    
S           -1.51795    0.87878     0.00589     
H           -1.95861    -2.73059    -0.01799    
H           0.56669     -2.10073    -0.01391    
C           -1.59824    -1.70773    -0.01122    
C           -2.44474    -0.60987    -0.00392    
C           -9.32823    -8.3408     -0.0514     
C           -9.44407    -9.86537    -0.06075    
C           -9.55991    -11.38995   -0.07011    
C           -9.67575    -12.91453   -0.07946    
C           -9.7916     -14.43911   -0.08881    
C           -9.90743    -15.96369   -0.09817    
C           -10.02328   -17.48826   -0.10752    
C           -10.13912   -19.01284   -0.11687    
C           -10.25496   -20.53741   -0.12623    
C           -10.3708    -22.06199   -0.13558    
C           -10.48665   -23.58657   -0.14493    
C           -10.60248   -25.11114   -0.15429    
C           -9.63762    -6.79293    1.42644     
C           -10.06287   -6.76962    2.89493     
C           -10.48811   -6.74632    4.36342     
C           -10.91336   -6.72302    5.83192     
C           -11.3386    -6.69971    7.30041     
C           -11.76384   -6.67641    8.76889     
C           -12.18909   -6.65311    10.23739    
C           -12.61433   -6.62981    11.70588    
C           -13.03957   -6.60651    13.17437    
C           -13.46482   -6.5832     14.64286    
C           -7.69186    7.7222      0.04803     
C           -7.50175    9.2393      0.05751     
C           -7.31164    10.75641    0.06699     
C           -7.12152    12.27351    0.07647     
C           -6.93141    13.79062    0.08595     
C           -6.7413     15.30772    0.09543     
C           -6.55118    16.82483    0.10491     
C           -6.36107    18.34193    0.11439     
C           -6.17096    19.85904    0.12387     
C           -5.98084    21.37614    0.13335     
C           -5.79073    22.89325    0.14283     
C           -5.60062    24.41036    0.15231     
C           -7.52807    6.17003     -1.44851    
C           -7.17416    6.13498     -2.93557    
C           -6.82025    6.09992     -4.42264    
C           -6.46634    6.06486     -5.9097     
C           -6.11244    6.0298      -7.39677    
C           -5.75853    5.99475     -8.88383    
C           -5.40462    5.95969     -10.3709    
C           -5.05071    5.92463     -11.85796   
C           -4.69681    5.88957     -13.34503   
C           -4.3429     5.85452     -14.83209   
H           -14.44753   -0.0        -0.0        
H           1.09        0.0         0.0         
