79

C           -3.48182    -0.77691    0.00103     
C           -4.13057    0.47459     -0.00105    
C           -4.30228    -1.91796    0.00284     
C           -5.68014    -1.81256    0.00258     
C           -6.33296    -0.54856    0.00044     
C           -5.51484    0.59543     -0.00136    
N           -6.61134    -2.84309    0.00425     
C           -7.89603    -2.32661    0.00322     
C           -7.78169    -0.80932    0.0008      
O           -8.8869     -3.0436     0.00429     
C           -6.35049    -4.27358    0.00655     
C           -8.8837     0.02965     -0.00064    
C           -10.33188   -0.23019    0.0         
C           -10.98426   1.03369     -0.00234    
N           -10.05271   2.06468     -0.00443    
C           -8.769      1.5484      -0.00349    
C           -11.15103   -1.37368    0.00235     
O           -7.77723    2.26415     -0.00493    
C           -10.31396   3.49516     -0.00709    
H           -5.96493    1.57357     -0.00299    
F           -3.73372    -3.15387    0.00489     
H           -3.52243    1.37119     -0.00246    
F           -12.93029   2.37617     -0.00459    
H           -10.70177   -2.35221    0.00417     
H           -13.14579   -2.14677    0.00415     
H           -6.51246    -4.30139    1.08409     
H           -6.18851    -4.24577    -1.07099    
C           -6.07619    -5.77777    0.00896     
H           -10.15162   3.5228      -1.08458    
C           -10.58865   4.99928     -0.00989    
H           -10.47629   3.46752     1.0704      
C           -12.53542   -1.25158    0.00232     
C           -12.36225   1.13974     -0.00233    
C           -13.18287   -0.0        0.0         
C           0.0         0.0         0.0         
C           0.15528     -1.37052    0.0022      
O           -1.33818    0.29511     -0.00055    
H           1.09309     -1.90193    0.0031      
H           -1.39705    -2.98113    0.00469     
C           -1.14352    -1.93348    0.00303     
C           -2.03756    -0.88302    0.00129     
C           -5.8019     -7.28197    0.01137     
C           -5.5276     -8.78616    0.01379     
C           -5.25331    -10.29035   0.01619     
C           -4.97902    -11.79455   0.01861     
C           -4.70472    -13.29874   0.02102     
C           -4.43042    -14.80293   0.02343     
C           -4.15613    -16.30713   0.02585     
C           -3.88184    -17.81132   0.02825     
C           -3.60754    -19.31551   0.03067     
C           -3.33324    -20.81971   0.03309     
C           -6.30341    -5.81678    1.52048     
C           -6.53062    -5.85579    3.032       
C           -6.75783    -5.8948     4.54352     
C           -6.98504    -5.9338     6.05504     
C           -7.21226    -5.97282    7.56656     
C           -7.43947    -6.01183    9.07808     
C           -7.66668    -6.05083    10.5896     
C           -7.89389    -6.08984    12.10112    
C           -10.86334   6.5034      -0.01269    
C           -11.13803   8.00752     -0.0155     
C           -11.41272   9.51164     -0.0183     
C           -11.68741   11.01576    -0.0211     
C           -11.96211   12.51988    -0.0239     
C           -12.2368    14.024      -0.0267     
C           -12.51149   15.52812    -0.0295     
C           -12.78618   17.03224    -0.0323     
C           -13.06087   18.53637    -0.0351     
C           -13.33556   20.04049    -0.03791    
C           -10.36093   5.03805     -1.52134    
C           -10.13322   5.07683     -3.03279    
C           -9.9055     5.1156      -4.54425    
C           -9.67779    5.15437     -6.0557     
C           -9.45007    5.19314     -7.56715    
C           -9.22235    5.23191     -9.0786     
C           -8.99464    5.27069     -10.59005   
C           -8.76692    5.30946     -12.1015    
H           -14.27287   -0.0        0.0         
H           1.09        0.0         0.0         
