77

C           -4.28035    1.09074     -0.00294    
C           -4.87199    2.35813     -0.00641    
S           -5.49089    -0.20242    0.00064     
C           -8.19797    1.02896     -0.00277    
C           -8.52073    2.50646     -0.00684    
N           -7.30814    3.18945     -0.0087     
C           -6.26631    2.26338     -0.00616    
C           -6.7785     0.96189     -0.00257    
C           -9.18017    0.06381     -9e-05      
C           -8.857      -1.41323    0.00399     
N           -10.06918   -2.09655    0.00557     
C           -11.11098   -1.17029    0.00315     
C           -10.60072   0.13019     -0.00024    
O           -9.62579    3.03274     -0.00827    
O           -7.75126    -1.9388     0.00512     
C           -7.1876     4.63206     -0.01263    
C           -10.18931   -3.53932    0.00921     
H           -10.26087   -3.53063    1.09682     
H           -10.11775   -3.54802    -1.07841    
C           -10.31618   -5.06305    0.01304     
H           -7.11636    4.62315     -1.10027    
H           -7.25884    4.64098     1.075       
C           -7.06029    6.15575     -0.01679    
H           -4.29626    3.27203     -0.00894    
H           -13.0839    -2.17876    0.00568     
S           -11.89008   1.29322     -0.00334    
C           -12.50779   -1.26482    0.00332     
C           -13.09723   -0.0        -0.0        
C           0.0         0.0         0.0         
C           -0.41193    1.38569     -0.00374    
C           -1.05176    -0.91467    0.00247     
N           0.40741     2.44052     -0.00658    
N           -2.01295    3.08337     -0.00831    
S           -0.53001    3.7884      -0.01023    
H           -3.13225    -1.36483    0.00367     
H           -0.82684    -1.97693    0.00537     
C           -2.41005    -0.55399    0.0015      
C           -1.825      1.76101     -0.00476    
C           -2.86978    0.76196     -0.00207    
C           -6.93296    7.67943     -0.02094    
C           -6.80565    9.20312     -0.0251     
C           -6.67833    10.7268     -0.02925    
C           -6.55102    12.25049    -0.0334     
C           -6.4237     13.77417    -0.03755    
C           -6.29638    15.29785    -0.04171    
C           -6.16906    16.82154    -0.04586    
C           -6.04175    18.34522    -0.05002    
C           -5.91443    19.86891    -0.05417    
C           -5.78711    21.39259    -0.05832    
C           -6.96036    6.14324     -1.54247    
C           -6.86044    6.13073     -3.06815    
C           -6.76051    6.11823     -4.59383    
C           -6.66059    6.10572     -6.11951    
C           -6.56066    6.09321     -7.64519    
C           -6.46074    6.0807      -9.17086    
C           -6.36082    6.0682      -10.69654   
C           -6.2609     6.05568     -12.22222   
C           -10.44305   -6.58677    0.01688     
C           -10.56993   -8.11049    0.02072     
C           -10.6968    -9.63421    0.02455     
C           -10.82367   -11.15794   0.02839     
C           -10.95054   -12.68166   0.03223     
C           -11.07741   -14.20538   0.03607     
C           -11.20429   -15.7291    0.0399      
C           -11.33116   -17.25283   0.04374     
C           -11.45803   -18.77655   0.04758     
C           -11.5849    -20.30027   0.05141     
C           -10.41656   -5.05085    1.5387      
C           -10.51693   -5.03865    3.06435     
C           -10.61731   -5.02645    4.59        
C           -10.71768   -5.01425    6.11566     
C           -10.81806   -5.00205    7.64131     
C           -10.91843   -4.98985    9.16696     
C           -11.01881   -4.97765    10.69261    
C           -11.11918   -4.96545    12.21827    
H           -14.18723   -0.0        -0.0        
H           1.09        0.0         0.0         
