88

C           -14.37191   0.66545     1e-05       
C           -15.15311   1.80305     7e-05       
O           -15.1887    -0.44115    -2e-05      
H           -14.78909   2.82077     0.00011     
H           -17.38997   1.99496     0.00011     
C           -16.50338   1.37809     7e-05       
C           -16.47863   0.0         0.0         
C           -3.51954    -0.43903    -0.00022    
C           -4.50653    -1.39393    -0.0001     
S           -4.1484     1.22012     -0.00072    
C           -5.78679    0.60014     -0.00035    
C           -5.81991    -0.83772    -0.00022    
C           -7.07315    -1.4842     -3e-05      
C           -8.26545    -0.71653    -0.00014    
C           -8.21398    0.71804     -0.00017    
C           -6.94685    1.36119     -0.00029    
C           -9.53169    -1.36204    -0.00022    
C           -10.69127   -0.59927    -0.00015    
C           -10.65839   0.83949     -5e-05      
C           -9.40525    1.48793     -8e-05      
C           -9.33311    2.96726     0.0         
N           -8.0484     3.54246     -9e-05      
C           -6.85447    2.82957     -0.00041    
C           -7.15044    -2.96093    0.00051     
N           -8.42921    -3.54053    -0.00024    
C           -9.62945    -2.83228    -0.00067    
O           -10.32316   3.69181     0.00025     
O           -5.7766     3.42104     0.00014     
O           -6.17075    -3.70012    -0.00075    
O           -10.71518   -3.40881    -0.00032    
H           -12.15427   2.45783     0.00014     
H           -4.32664    -2.45812    0.00012     
C           -7.93011    5.0052      0.00018     
C           -8.47682    -5.00712    -0.00044    
H           -7.74729    4.99061     -1.07429    
C           -7.80684    6.52922     0.00046     
H           -8.11291    5.01978     1.07464     
H           -8.24287    -5.01457    -1.06501    
H           -8.71078    -4.99967    1.06413     
C           -8.52644    -6.53531    -0.00065    
S           -12.32986   -1.21922    -0.00029    
C           -11.97259   1.39422     4e-05       
C           -12.95913   0.43906     -4e-05      
C           0.0         0.0         0.0         
C           0.02473     -1.37807    0.00025     
O           -1.28997    0.44114     -0.00021    
H           0.91131     -1.99496    0.00044     
H           -1.68962    -2.82076    0.00047     
C           -1.32558    -1.80306    0.00027     
C           -2.1067     -0.66545    -5e-05      
C           -7.68359    8.05325     0.00075     
C           -7.56034    9.57727     0.00103     
C           -7.43707    11.10129    0.00132     
C           -7.31382    12.62532    0.00159     
C           -7.19057    14.14934    0.00188     
C           -7.06731    15.67336    0.00217     
C           -6.94405    17.19739    0.00245     
C           -6.8208     18.72141    0.00274     
C           -6.69753    20.24543    0.00302     
C           -6.57428    21.76946    0.00331     
C           -7.55041    6.50876     -1.50674    
C           -7.29398    6.48831     -3.01395    
C           -7.03755    6.46785     -4.52115    
C           -6.78112    6.44739     -6.02836    
C           -6.52469    6.42693     -7.53556    
C           -6.26826    6.40647     -9.04276    
C           -6.01183    6.38602     -10.54997   
C           -5.7554     6.36556     -12.05718   
C           -8.57605    -8.06351    -0.00087    
C           -8.62567    -9.5917     -0.00108    
C           -8.67528    -11.1199    -0.00129    
C           -8.7249     -12.64809   -0.0015     
C           -8.77451    -14.17629   -0.00172    
C           -8.82413    -15.70448   -0.00193    
C           -8.87374    -17.23268   -0.00214    
C           -8.92336    -18.76087   -0.00236    
C           -8.97297    -20.28907   -0.00257    
C           -9.02259    -21.81726   -0.00278    
C           -8.85462    -6.52487    1.49267     
C           -9.18279    -6.51442    2.986       
C           -9.51097    -6.50397    4.47933     
C           -9.83915    -6.49353    5.97266     
C           -10.16733   -6.48308    7.46599     
C           -10.49551   -6.47263    8.95932     
C           -10.82369   -6.46219    10.45265    
C           -11.15187   -6.45174    11.94598    
H           -17.56863   0.0         0.0         
H           1.09        0.0         0.0         
