118

C           -21.31672   -0.17958    0.00842     
C           -21.78884   1.12937     -0.00243    
S           -22.67591   -1.30547    0.02277     
H           -23.72246   2.16967     -0.02793    
H           -21.11456   1.98051     -0.01194    
C           -23.19156   1.2239      -0.00741    
C           -23.84061   -0.0        -0.0        
C           -16.53461   0.41518     0.00212     
C           -17.63493   -0.44817    0.00885     
N           -17.04532   1.7128      -0.00755    
C           -18.47934   1.71638     -0.00755    
C           -17.98723   -1.85037    0.019       
O           -17.32777   -2.8877     0.02632     
O           -19.13945   2.75347     -0.01575    
C           -20.13976   -3.10806    0.02883     
C           -16.32755   2.97494     -0.01707    
C           -15.57171   4.30402     -0.0271     
H           -16.80974   3.24205     -0.95742    
H           -15.84536   2.70782     0.92327     
H           -20.00259   -3.19445    -1.04905    
C           -20.89634   -4.43672    0.03903     
H           -20.27693   -3.02168    1.10671     
N           -19.42133   -1.84641    0.01914     
C           -18.8305    0.31443     0.00329     
C           -19.93126   -0.54902    0.00979     
C           -12.62566   -0.13612    0.00554     
C           -13.27839   -1.36181    0.01483     
S           -13.79258   1.17098     -0.00403    
H           -15.35355   -2.11628    0.02082     
H           -12.74925   -2.30881    0.02178     
C           -14.67817   -1.26609    0.01436     
C           -15.14977   0.04511     0.0046      
C           -8.69085    -0.04503    0.00501     
C           -9.16245    1.26616     -0.0061     
S           -10.04802   -1.17088    0.01447     
H           -11.09136   2.30886     -0.01511    
H           -8.48707    2.11634     -0.01325    
C           -10.56222   1.36187     -0.00702    
C           -11.21495   0.13619     0.00329     
C           -3.90936    0.54912     0.00076     
C           -5.01011    -0.31433    0.00781     
N           -4.41928    1.84647     -0.0104     
C           -5.85339    1.85044     -0.0107     
C           -5.36128    -1.71628    0.01923     
O           -4.70116    -2.75338    0.02748     
O           -6.51285    2.88777     -0.01978    
C           -7.51306    -2.97484    0.02969     
C           -3.70085    3.10814     -0.02068    
C           -2.94427    4.4368      -0.03152    
H           -3.54776    3.02974     1.05566     
H           -3.85395    3.18655     -1.09702    
H           -7.66676    -2.89633    -1.04656    
C           -8.2689     -4.30391    0.04068     
H           -7.35937    -3.05334    1.10594     
N           -6.7953     -1.71271    0.01925     
C           -6.20568    0.44825     0.00127     
C           -7.306      -0.41508    0.00834     
C           0.0         0.0         0.0         
C           -0.64906    -1.22386    0.01176     
S           -1.1647     1.30567     0.00213     
H           -2.72606    -1.98045    0.01893     
H           -0.11814    -2.16985    0.00618     
C           -2.05176    -1.12927    0.0151      
C           -2.52389    0.17971     0.00532     
O           -14.87471   5.52965     -0.03636    
C           -14.1777    6.75529     -0.04561    
C           -13.42186   8.08437     -0.05564    
O           -12.72486   9.31001     -0.06489    
C           -12.02785   10.53565    -0.07415    
C           -11.27202   11.86474    -0.08419    
O           -10.57501   13.09037    -0.09343    
C           -9.87799    14.31601    -0.10268    
O           -21.59404   -5.66197    0.04843     
C           -22.29173   -6.88722    0.05784     
C           -23.04831   -8.21587    0.06803     
O           -23.74601   -9.44112    0.07744     
C           -24.4437    -10.66637   0.08685     
C           -25.20027   -11.99503   0.09704     
O           -25.89797   -13.22028   0.10644     
C           -26.59566   -14.44553   0.11585     
C           -2.1877     5.76545     -0.04234    
C           -1.43113    7.09411     -0.05317    
C           -0.67455    8.42276     -0.06401    
C           0.08202     9.75141     -0.07483    
C           0.83859     11.08007    -0.08566    
C           1.59517     12.40872    -0.09649    
C           2.35173     13.73737    -0.10732    
C           3.1083      15.06602    -0.11815    
C           3.86488     16.39467    -0.12898    
C           4.62145     17.72333    -0.13981    
C           -2.72953    4.32681     1.47833     
C           -2.51477    4.21683     2.98817     
C           -2.30001    4.10685     4.49801     
C           -2.08526    3.99687     6.00786     
C           -1.8705     3.88689     7.5177      
C           -1.65575    3.77691     9.02754     
C           -1.441      3.66693     10.53739    
C           -1.22624    3.55695     12.04723    
C           -9.02473    -5.63298    0.05167     
C           -9.78057    -6.96205    0.06266     
C           -10.5364    -8.29113    0.07366     
C           -11.29223   -9.6202     0.08465     
C           -12.04807   -10.94927   0.09564     
C           -12.8039    -12.27834   0.10663     
C           -13.55974   -13.60742   0.11762     
C           -14.31557   -14.93649   0.12861     
C           -15.07141   -16.26556   0.1396      
C           -15.82724   -17.59464   0.15059     
C           -8.48449    -4.19378    -1.46903    
C           -8.70009    -4.08366    -2.97874    
C           -8.91569    -3.97354    -4.48846    
C           -9.13129    -3.86341    -5.99817    
C           -9.34688    -3.75329    -7.50788    
C           -9.56248    -3.64317    -9.01759    
C           -9.77808    -3.53304    -10.5273    
C           -9.99368    -3.42292    -12.03702   
H           -24.93061   -0.0        -0.0        
H           1.09        0.0         0.0         
