77

C           -3.86155    0.6786      0.00563     
N           -4.44892    -0.54667    -0.00427    
C           -4.62159    1.85888     0.01516     
C           -5.76411    -0.56237    -0.00434    
C           -6.64714    0.55596     0.00467     
C           -8.01394    0.03111     0.00042     
C           -7.84461    -1.48263    -0.0117     
N           -6.4854     -1.74457    -0.01379    
C           -9.24897    0.64645     0.00532     
C           -9.41834    2.16124     0.01746     
N           -10.77695   2.42301     0.01944     
C           -11.49787   1.2399      0.01        
C           -11.24798   -1.12777    -0.00897    
C           -10.61549   0.12231     0.00107     
C           -6.01565    1.80587     0.01474     
O           -8.5692     3.04035     0.02465     
O           -8.69318    -2.36225    -0.01894    
C           -11.35536   3.75293     0.03028     
C           -5.90725    -3.07463    -0.02471    
H           -6.50186    -3.34027    0.84935     
C           -5.29774    -4.47684    -0.03623    
H           -5.31265    -2.80898    -0.89877    
H           -10.76063   4.01871     -0.84365    
C           -11.96516   5.15502     0.04171     
H           -11.9501    3.48715     0.90421     
H           -13.13523   -2.14582    -0.01718    
H           -10.66346   -2.03447    -0.01622    
H           -6.60037    2.71239     0.02204     
H           -4.12898    2.82473     0.02292     
C           -12.64148   -1.18053    -0.00945    
N           -12.8136    1.22447     0.00986     
C           -13.4013    0.0         -0.0        
C           0.0         0.0         0.0         
C           -0.17724    1.37394     0.01125     
S           -1.53655    -0.83196    -0.00679    
H           -1.85701    2.79373     0.02292     
H           0.64207     2.08407     0.01705     
C           -1.53316    1.75902     0.01442     
C           -2.40611    0.68327     0.00564     
C           -12.57496   6.55711     0.05314     
C           -13.18474   7.95921     0.06457     
C           -13.79454   9.3613      0.076       
C           -14.40433   10.76339    0.08743     
C           -15.01413   12.16548    0.09886     
C           -15.62392   13.56757    0.11029     
C           -16.23371   14.96967    0.12172     
C           -16.84351   16.37176    0.13315     
C           -17.4533    17.77385    0.14458     
C           -18.0631    19.17594    0.15602     
C           -11.1309    5.52786     -1.18419    
C           -10.29664   5.90068     -2.41011    
C           -9.46238    6.2735      -3.63601    
C           -8.62813    6.64633     -4.86192    
C           -7.79386    7.01916     -6.08783    
C           -6.95961    7.39199     -7.31374    
C           -6.12535    7.76482     -8.53965    
C           -5.29108    8.13764     -9.76555    
C           -4.68823    -5.87905    -0.04774    
C           -4.07871    -7.28127    -0.05926    
C           -3.4692     -8.68348    -0.07077    
C           -2.85969    -10.08569   -0.08229    
C           -2.25017    -11.48791   -0.09381    
C           -1.64066    -12.89012   -0.10532    
C           -1.03115    -14.29233   -0.11684    
C           -0.42163    -15.69454   -0.12835    
C           0.18788     -17.09676   -0.13987    
C           0.79739     -18.49897   -0.15138    
C           -6.13183    -4.84947    1.18986     
C           -6.96591    -5.2221     2.41594     
C           -7.8        -5.59473    3.64203     
C           -8.63409    -5.96736    4.86812     
C           -9.46818    -6.33999    6.0942      
C           -10.30226   -6.71262    7.32029     
C           -11.13635   -7.08525    8.54638     
C           -11.97044   -7.45788    9.77246     
H           -14.4913    0.0         -0.0        
H           1.09        0.0         0.0         
