80

C           -14.70768   -0.32016    0.01048     
C           -15.10575   1.01302     0.00117     
S           -16.12656   -1.36896    0.0232      
H           -16.97704   2.1606      -0.02614    
H           -14.38482   1.82496     -0.00689    
C           -16.50096   1.186       -0.00487    
C           -17.21743   -0.0        -0.0        
C           -9.8993     0.00229     0.00879     
C           -11.04676   -0.79841    0.0132      
N           -10.33593   1.32646     0.00068     
C           -11.76725   1.41089     -0.00062    
C           -11.47662   -2.17779    0.02101     
O           -10.87722   -3.25149    0.0273      
O           -12.3682    2.48311     -0.00788    
C           -13.69657   -3.3121     0.02758     
C           -9.54758    2.54614     -0.00626    
C           -8.7176     3.83024     -0.01357    
H           -9.03396    2.2193      0.89789     
H           -10.0612    2.87297     -0.9104     
H           -14.2103    -2.98564    -0.87663    
C           -14.52643   -4.59628    0.03544     
H           -13.18283   -3.63856    0.93179     
N           -12.90865   -2.09284    0.02012     
C           -12.1978    0.03066     0.0078      
C           -13.34458   -0.7684     0.01227     
C           -6.03023    -0.76516    0.01508     
C           -6.74926    -1.95316    0.02189     
S           -7.12037    0.60707     0.0062      
H           -8.86314    -2.59027    0.0248      
H           -6.27382    -2.92827    0.02825     
C           -8.14163    -1.77879    0.02015     
C           -8.53673    -0.44347    0.01193     
C           0.0         0.0         0.0         
C           -0.71       -1.18449    0.01245     
S           -1.07239    1.4152      0.013       
C           -2.10851    -0.96578    0.0234      
C           -2.46857    0.37826     0.0142      
F           -4.43057    1.78593     -0.00078    
H           -0.2364     -2.15924    -0.00711    
S           -3.5143     -2.00304    0.02509     
C           -3.86468    0.56729     0.00801     
C           -4.60327    -0.59966    0.0143      
C           -7.88761    5.11434     -0.02088    
C           -7.05763    6.39843     -0.0282     
C           -6.22764    7.68253     -0.03551    
C           -5.39766    8.96663     -0.04282    
C           -4.56767    10.25073    -0.05013    
C           -3.73768    11.53483    -0.05744    
C           -2.9077     12.81893    -0.06476    
C           -2.07772    14.10303    -0.07207    
C           -1.24774    15.38713    -0.07938    
C           -0.41775    16.67123    -0.08669    
C           -7.99711    3.37177     1.25471     
C           -7.27662    2.9133      2.52299     
C           -6.55613    2.45483     3.79127     
C           -5.83565    1.99636     5.05956     
C           -5.11516    1.53789     6.32784     
C           -4.39467    1.07942     7.59613     
C           -3.67417    0.62095     8.86441     
C           -2.95368    0.16248     10.13269    
C           -15.3563    -5.88045    0.04329     
C           -16.18617   -7.16462    0.05115     
C           -17.01603   -8.44879    0.059       
C           -17.8459    -9.73297    0.06686     
C           -18.67576   -11.01714   0.07471     
C           -19.50563   -12.30131   0.08257     
C           -20.3355    -13.58549   0.09042     
C           -21.16536   -14.86966   0.09828     
C           -21.99523   -16.15383   0.10614     
C           -22.8251    -17.43801   0.11399     
C           -15.24708   -4.13833    -1.23295    
C           -15.96772   -3.68039    -2.50134    
C           -16.68837   -3.22245    -3.76972    
C           -17.40901   -2.76451    -5.03811    
C           -18.12966   -2.30657    -6.30649    
C           -18.8503    -1.84863    -7.57488    
C           -19.57095   -1.39069    -8.84326    
C           -20.29159   -0.93275    -10.11165   
H           -18.30743   -0.0        -0.0        
H           1.09        0.0         0.0         
