392

C           49.85       7.74        28.5        
N           49.14       8.78        28.05       
C           49.23       6.71        29.23       
C           47.84       8.8         28.36       
C           47.11       7.86        29.1        
C           45.67       8.26        29.16       
C           45.74       9.61        28.5        
N           46.98       9.86        27.99       
C           44.45       7.78        29.75       
C           44.31       6.5         30.5        
N           43.05       6.33        31.02       
C           42.27       7.42        30.52       
C           42.28       9.33        29.18       
C           43.05       8.26        29.7        
C           47.89       6.81        29.56       
O           45.16       5.55        30.54       
O           44.94       10.52       28.35       
C           42.63       5.05        31.53       
C           47.47       11.14       27.44       
H           46.71       11.69       26.89       
H           47.82332    11.7529     28.26922    
H           48.34       10.97       26.73       
H           42.0        4.59        30.75       
H           42.06171    5.17475     32.45173    
H           43.53       4.5         31.81       
H           40.38       10.17       28.89       
H           42.76       10.02       28.46       
H           47.41       6.0         30.15       
H           49.77       5.95        29.74       
C           40.94       9.39        29.39       
N           40.96       7.53        30.78       
C           40.23       8.47        30.24       
C           53.68       7.19        28.34       
C           53.44       8.35        27.67       
S           52.25       6.56        29.03       
H           51.73       9.57        27.04       
H           54.16       8.84        27.08       
C           52.03       8.67        27.59       
C           51.28       7.86        28.37       
C           62.5        0.71        30.53       
N           62.77       1.9         30.07       
C           61.23       0.18        30.74       
C           61.74       2.73        29.89       
C           60.36       2.3         30.08       
C           59.54       3.52        29.75       
C           60.57       4.59        29.34       
N           61.83       4.04        29.6        
C           58.2        3.73        29.58       
C           57.2        2.85        30.27       
N           55.95       3.39        30.23       
C           55.97       4.6         29.51       
C           57.37       6.0         28.25       
C           57.32       4.8         29.06       
C           60.17       1.01        30.39       
O           57.27       1.79        30.84       
O           60.46       5.79        29.04       
C           54.76       2.94        30.91       
C           63.01       4.79        29.37       
H           62.85       5.57        28.64       
H           63.45972    5.25423     30.24769    
H           63.73       4.17        28.86       
H           53.96       2.81        30.22       
H           54.61785    3.4233      31.8766     
H           54.92       1.88        31.09       
H           56.36       7.73        27.45       
H           58.28       6.32        27.85       
H           59.22       0.64        30.39       
H           61.13       -0.87       31.0        
C           56.21       6.82        28.04       
N           54.88       5.34        29.35       
C           54.98       6.5         28.61       
C           66.07       -0.6        31.29       
C           65.2        -1.61       31.48       
S           65.25       0.82        30.74       
H           63.03       -1.98       31.47       
H           65.49       -2.67       31.76       
C           63.87       -1.27       31.22       
C           63.74       -0.03       30.78       
C           76.16       -2.0        35.64       
N           75.8        -0.75       35.25       
C           75.39       -3.12       35.38       
C           74.68       -0.56       34.65       
C           73.85       -1.58       34.17       
C           72.65       -0.95       33.57       
C           72.97       0.5         33.69       
N           74.17       0.62        34.31       
C           71.44       -1.4        32.97       
C           71.15       -2.88       32.69       
N           69.9        -3.09       32.21       
C           69.32       -1.87       32.1        
C           69.52       0.43        32.44       
C           70.2        -0.79       32.5        
C           74.28       -2.91       34.5        
O           71.93       -3.8        32.76       
O           72.25       1.4         33.48       
C           69.5        -4.42       31.7        
C           74.57       1.83        35.05       
H           75.03       1.58        35.99       
H           75.15402    2.5413      34.46598    
H           73.66       2.4         35.28       
H           68.46       -4.76       31.96       
H           69.68632    -4.51661    30.6304     
H           70.12       -5.19       32.24       
H           67.71       1.62        32.0        
H           70.02       1.29        32.85       
H           73.67       -3.76       34.16       
H           75.62       -4.07       35.84       
C           68.2        0.58        31.99       
N           68.09       -1.75       31.68       
C           67.54       -0.53       31.47       
C           79.54       -1.3        37.4        
C           79.31       -2.58       37.47       
S           78.17       -0.44       36.69       
H           77.63       -4.01       37.04       
H           79.99       -3.3        37.73       
C           77.98       -2.97       36.99       
C           77.31       -1.93       36.5        
C           89.14       3.23        40.67       
N           88.44       3.64        39.61       
C           88.71       2.01        41.26       
C           87.4        3.04        39.2        
C           86.8        1.87        39.74       
C           85.61       1.5         38.97       
C           85.55       2.64        37.98       
N           86.55       3.57        38.23       
C           84.62       0.47        39.0        
C           84.74       -0.87       39.76       
N           83.58       -1.59       39.62       
C           82.74       -0.92       38.76       
C           82.44       1.06        37.48       
C           83.34       0.31        38.25       
C           87.61       1.29        40.76       
O           85.77       -1.17       40.41       
O           84.75       2.81        37.11       
C           83.4        -2.97       40.06       
C           86.86       4.64        37.37       
H           86.52       4.41        36.34       
H           86.4565     5.5623      37.78792    
H           87.94       4.62        37.27       
H           84.33       -3.51       40.19       
H           82.81925    -3.17741    40.95878    
H           82.96       -3.43       39.13       
H           80.5        1.1         36.45       
H           82.64       2.05        37.15       
H           87.36       0.38        41.26       
H           89.14       1.63        42.11       
C           81.12       0.54        37.14       
N           81.61       -1.45       38.49       
C           80.79       -0.66       37.72       
C           91.7        5.79        42.12       
C           91.6        5.95        40.85       
S           90.66       4.48        42.65       
H           90.47       5.12        39.16       
H           92.14       6.73        40.36       
C           90.75       5.07        40.19       
C           90.21       4.17        41.03       
C           97.77       11.74       49.11       
N           97.34       12.3        48.0        
C           97.47       10.41       49.44       
C           96.66       11.53       47.16       
C           96.24       10.16       47.4        
C           95.41       9.8         46.22       
C           95.41       11.15       45.39       
N           96.21       12.06       46.04       
C           94.78       8.55        45.93       
C           94.77       7.32        46.86       
N           93.95       6.35        46.22       
C           93.51       6.76        44.97       
C           93.6        8.68        43.54       
C           93.97       8.14        44.77       
C           96.68       9.61        48.6        
O           95.32       7.07        47.94       
O           94.76       11.47       44.36       
C           93.83       5.03        46.79       
C           96.35       13.38       45.54       
H           96.35       13.47       44.46       
H           95.70216    14.14698    45.96444    
H           97.34       13.72       45.82       
H           93.87       4.3         45.96       
H           92.9028     4.9324      47.35469    
H           94.61       4.94        47.48       
H           92.66       8.28        41.66       
H           93.97       9.64        43.15       
H           96.38       8.67        48.96       
H           97.86       9.97        50.39       
C           92.82       7.92        42.68       
N           92.63       6.06        44.23       
C           92.43       6.63        43.04       
C           99.11       14.85       50.88       
C           99.8        13.75       51.47       
S           98.01       14.38       49.65       
H           99.74       11.61       51.43       
H           100.47      13.8        52.3        
C           99.36       12.54       51.01       
C           98.47       12.71       49.96       
C           100.07      25.08       55.01       
N           99.49       24.88       53.81       
C           100.61      24.02       55.76       
C           99.34       23.65       53.4        
C           99.97       22.49       53.91       
C           99.68       21.42       52.9        
C           98.93       22.19       51.8        
N           98.73       23.49       52.19       
C           100.07      20.11       52.83       
C           101.11      19.52       53.76       
N           101.34      18.16       53.43       
C           100.52      17.79       52.38       
C           98.64       18.6        51.22       
C           99.67       18.94       52.05       
C           100.54      22.75       55.19       
O           101.73      20.05       54.69       
O           98.44       21.7        50.82       
C           101.87      17.11       54.32       
C           97.57       24.25       51.66       
H           96.88       24.56       52.44       
H           97.75696    25.04099    50.93372    
H           97.1        23.51       51.07       
H           101.12      16.34       54.28       
H           102.8368    16.72328    53.99773    
H           101.88      17.6        55.34       
H           97.71       17.15       49.93       
H           97.94       19.37       51.0        
H           100.78      21.94       55.85       
H           101.1       24.21       56.68       
C           98.5        17.31       50.74       
N           100.37      16.54       51.97       
C           99.33       16.27       51.22       
C           100.31      28.8        56.32       
C           99.87       28.8        55.05       
S           100.76      27.17       56.85       
H           99.34       27.31       53.54       
H           99.54       29.65       54.51       
C           99.65       27.51       54.53       
C           100.09      26.48       55.35       
C           102.12      36.54       63.97       
N           101.67      36.93       62.74       
C           102.42      35.2        64.18       
C           101.54      36.02       61.78       
C           101.85      34.65       61.88       
C           101.53      33.99       60.56       
C           101.1       35.22       59.72       
N           101.22      36.37       60.47       
C           101.66      32.74       60.1        
C           102.38      31.7        60.87       
N           102.24      30.48       60.2        
C           101.54      30.66       59.02       
C           100.46      32.25       57.74       
C           101.16      32.02       58.9        
C           102.31      34.24       63.15       
O           103.07      31.76       61.87       
O           101.06      35.29       58.51       
C           103.01      29.33       60.45       
C           101.86      37.52       59.8        
H           102.31      37.11       58.88       
H           101.14702   38.305      59.54794    
H           102.72      37.82       60.39       
H           103.47      28.93       59.5        
H           102.45352   28.52381    60.928      
H           103.83      29.56       61.1        
H           99.49       31.4        56.05       
H           100.05      33.29       57.61       
H           102.38      33.22       63.45       
H           102.69      34.77       65.19       
C           100.21      31.23       56.86       
N           101.41      29.68       58.18       
C           100.64      29.94       57.15       
C           101.87      39.72       66.17       
C           102.51      38.76       66.93       
S           101.58      39.2        64.58       
H           102.7       36.5        66.68       
H           102.83      38.92       67.94       
C           102.48      37.49       66.27       
C           102.14      37.58       64.95       
C           101.35      50.13       70.14       
N           100.81      49.85       68.92       
C           102.02      49.14       70.9        
C           100.78      48.6        68.58       
C           101.41      47.48       69.24       
C           101.18      46.21       68.42       
C           100.35      46.72       67.27       
N           100.3       48.08       67.36       
C           101.38      44.81       68.6        
C           101.75      44.21       69.94       
N           101.9       42.84       69.75       
C           101.75      42.55       68.39       
C           101.31      43.43       66.32       
C           101.39      43.69       67.7        
C           102.09      47.77       70.4        
O           101.81      44.78       70.99       
O           99.95       46.1        66.26       
C           102.64      41.93       70.59       
C           99.76       48.95       66.38       
H           99.28       49.84       66.83       
H           100.45933   49.14779    65.56765    
H           98.94       48.31       65.96       
H           103.53      41.66       70.08       
H           102.01813   41.12229    70.97599    
H           102.97      42.51       71.45       
H           101.21      42.0        64.7        
H           101.1       44.23       65.61       
H           102.57      47.02       70.88       
H           102.62      49.3        71.76       
C           101.34      42.13       65.76       
N           101.9       41.27       67.9        
C           101.63      41.08       66.62       
C           102.16      53.67       71.4        
C           101.34      53.83       70.29       
S           102.56      51.99       71.73       
H           100.16      52.51       69.03       
H           100.92      54.79       69.9        
C           100.87      52.6        69.83       
C           101.39      51.51       70.49       
C           107.87      61.75       76.36       
N           107.05      62.02       75.33       
C           108.04      60.48       76.9        
C           106.25      61.01       75.0        
C           106.22      59.72       75.47       
C           105.26      58.88       74.67       
C           104.63      59.98       73.82       
N           105.32      61.15       74.06       
C           104.9       57.58       74.57       
C           105.63      56.48       75.31       
N           105.17      55.26       74.81       
C           104.2       55.46       73.85       
C           102.84      57.02       72.9        
C           103.95      56.85       73.75       
C           107.21      59.4        76.39       
O           106.54      56.44       76.16       
O           103.74      59.97       73.03       
C           105.63      53.92       75.15       
C           104.64      62.43       73.82       
H           105.38      63.24       73.7        
H           103.903     62.69269    74.57889    
H           104.16      62.42       72.82       
H           106.73      53.96       75.24       
H           105.15679   53.50852    76.04155    
H           105.49      53.34       74.26       
H           101.45      56.41       71.49       
H           102.36      57.96       72.88       
H           107.29      58.44       76.74       
H           108.8       60.2        77.58       
C           102.2       56.05       72.18       
N           103.68      54.46       73.09       
C           102.68      54.75       72.23       
C           110.39      64.66       76.15       
C           110.49      64.11       77.37       
S           109.09      63.9        75.31       
H           109.6       62.42       78.47       
H           111.22      64.43       78.1        
C           109.62      63.01       77.6        
C           108.77      62.8        76.63       
C           115.36      73.09       71.25       
N           116.06      72.51       72.21       
C           114.14      72.69       70.79       
C           115.45      71.48       72.77       
C           114.22      70.88       72.31       
C           113.96      69.73       73.22       
C           115.18      69.76       74.18       
N           115.95      70.92       73.9        
C           113.07      68.7        73.28       
C           112.13      68.47       72.07       
N           111.2       67.5        72.53       
C           111.53      67.05       73.78       
C           113.08      67.22       75.53       
C           112.74      67.65       74.28       
C           113.67      71.46       71.19       
O           112.06      68.88       70.96       
O           115.58      68.92       74.96       
C           110.39      66.73       71.62       
C           117.16      71.35       74.6        
H           117.81      71.96       73.93       
H           116.9313    72.01396    75.43364    
H           117.68      70.45       74.84       
H           109.51      66.37       72.12       
H           111.02023   65.98897    71.12829    
H           110.14      67.46       70.79       
H           112.49      65.98       77.23       
H           113.91      67.75       75.98       
H           112.9       71.06       70.62       
H           113.56      73.2        69.95       
C           112.21      66.36       76.23       
N           110.82      66.15       74.4        
C           111.18      65.73       75.56       
C           117.99      75.47       69.47       
C           116.78      76.06       69.36       
S           117.75      73.88       70.18       
H           114.65      75.62       70.1        
H           116.71      76.96       68.75       
C           115.71      75.33       70.03       
C           116.11      74.13       70.56       
H           39.2        8.16        30.03       
H           118.8       75.68       68.79       
