392

C           50.2        12.04       0.59        
N           50.95       13.11       0.34        
C           48.88       12.08       1.03        
C           50.37       14.34       0.39        
C           49.02       14.54       0.8         
C           48.74       15.99       0.68        
C           50.05       16.56       0.15        
N           50.95       15.52       0.01        
C           47.67       16.83       0.89        
C           46.36       16.38       1.64        
N           45.49       17.44       1.69        
C           46.04       18.49       1.01        
C           47.94       19.25       -0.22       
C           47.38       18.21       0.53        
C           48.31       13.35       1.17        
O           46.19       15.33       2.26        
O           50.5        17.62       0.06        
C           44.38       17.58       2.58        
C           52.3        15.72       -0.41       
H           52.45       16.61       -1.02       
H           53.00342    15.72718    0.42262     
H           52.54       14.85       -1.03       
H           43.63       18.23       2.15        
H           44.72011    18.07537    3.48941     
H           43.96       16.63       2.79        
H           47.66       21.24       -0.8        
H           48.86       19.19       -0.72       
H           47.24       13.33       1.44        
H           48.31       11.15       1.14        
C           47.24       20.44       -0.2        
N           45.32       19.62       0.86        
C           45.95       20.63       0.2         
C           52.63       9.07        -0.34       
C           51.49       8.54        0.2         
S           52.48       10.8        -0.46       
H           49.71       9.3         1.22        
H           51.44       7.51        0.37        
C           50.54       9.51        0.62        
C           50.9        10.78       0.33        
C           60.66       2.89        -4.15       
N           60.45       4.07        -4.81       
C           59.68       2.27        -3.38       
C           59.44       4.82        -4.45       
C           58.41       4.39        -3.62       
C           57.35       5.41        -3.62       
C           57.85       6.52        -4.61       
N           59.07       6.04        -5.02       
C           56.18       5.54        -2.88       
C           55.35       4.35        -2.35       
N           54.47       4.85        -1.48       
C           54.47       6.22        -1.49       
C           55.46       8.08        -2.58       
C           55.46       6.71        -2.38       
C           58.55       3.02        -3.06       
O           55.42       3.14        -2.5        
O           57.33       7.47        -5.09       
C           54.04       4.12        -0.25       
C           59.76       6.69        -6.11       
H           59.07       7.47        -6.49       
H           60.69615    7.15455     -5.8003     
H           59.9        5.89        -6.8        
H           53.06       4.42        0.21        
H           54.71921    4.28444     0.5865      
H           54.07       3.07        -0.47       
H           54.42       9.93        -2.09       
H           56.06       8.54        -3.3        
H           57.81       2.59        -2.4        
H           59.73       1.23        -3.01       
C           54.49       8.84        -1.89       
N           53.65       6.97        -0.79       
C           53.69       8.33        -0.9        
C           64.24       1.82        -5.12       
C           63.64       0.8         -4.41       
S           63.2        3.16        -5.19       
H           61.75       0.4         -3.38       
H           64.08       -0.16       -4.28       
C           62.36       1.08        -3.97       
C           61.96       2.32        -4.34       
C           74.51       1.77        -9.46       
N           73.81       2.84        -9.79       
C           73.98       0.73        -8.76       
C           72.57       2.75        -9.33       
C           71.94       1.85        -8.42       
C           70.63       2.26        -7.97       
C           70.39       3.42        -8.9        
N           71.58       3.74        -9.6        
C           69.61       1.66        -7.18       
C           69.76       0.33        -6.42       
N           68.63       0.07        -5.7        
C           67.65       1.04        -6.0        
C           67.29       3.1         -7.02       
C           68.2        2.04        -6.8        
C           72.76       0.73        -8.17       
O           70.62       -0.48       -6.42       
O           69.43       4.15        -9.08       
C           68.34       -1.17       -5.07       
C           71.77       5.01        -10.36      
H           72.76       5.37        -10.04      
H           71.49421    4.89279     -11.408     
H           71.13       5.77        -9.87       
H           68.79       -2.02       -5.58       
H           68.68676    -1.17694    -4.03665    
H           67.23       -1.35       -5.08       
H           65.3        3.9         -6.74       
H           67.59       3.92        -7.7        
H           72.52       -0.16       -7.66       
H           74.59       -0.12       -8.5        
C           65.93       3.05        -6.49       
N           66.48       0.94        -5.49       
C           65.57       1.94        -5.76       
C           77.87       2.59        -11.27      
C           78.11       1.47        -10.52      
S           76.19       3.06        -11.15      
H           76.93       0.1         -9.22       
H           79.06       0.93        -10.45      
C           77.0        1.06        -9.74       
C           75.88       1.85        -9.93       
C           85.65       9.57        -15.5       
N           84.32       9.75        -15.8       
C           86.13       8.36        -14.98      
C           83.47       8.83        -15.34      
C           83.8        7.58        -14.64      
C           82.49       6.92        -14.3       
C           81.46       7.8         -14.95      
N           82.13       8.93        -15.51      
C           82.12       5.79        -13.5       
C           83.08       4.9         -12.73      
N           82.43       3.94        -12.11      
C           81.09       4.05        -12.19      
C           79.47       5.36        -13.18      
C           80.84       5.11        -13.04      
C           85.19       7.4         -14.55      
O           84.29       4.87        -12.79      
O           80.26       7.77        -15.02      
C           83.15       3.12        -11.15      
C           81.35       10.03       -16.13      
H           80.57       9.62        -16.77      
H           81.11319    10.79614    -15.39172   
H           82.0        10.51       -16.9       
H           84.09       2.9         -11.53      
H           83.24989    3.44822     -10.1154    
H           82.6        2.21        -11.27      
H           77.54       4.54        -12.96      
H           79.24       6.2         -13.76      
H           85.5        6.41        -14.14      
H           87.18       8.15        -14.84      
C           78.55       4.5         -12.65      
N           80.25       3.18        -11.64      
C           78.91       3.4         -11.91      
C           87.74       12.78       -15.22      
C           86.81       12.96       -16.2       
S           87.66       11.14       -14.64      
H           85.09       11.84       -17.1       
H           86.5        13.93       -16.63      
C           85.98       11.8        -16.42      
C           86.43       10.71       -15.8       
C           94.8        19.61       -10.31      
N           93.91       20.11       -11.23      
C           94.92       18.32       -10.0       
C           93.2        19.2        -11.85      
C           93.23       17.78       -11.71      
C           92.11       17.25       -12.54      
C           91.63       18.5        -13.26      
N           92.29       19.56       -12.8       
C           91.62       15.99       -12.77      
C           92.33       14.78       -12.23      
N           91.56       13.62       -12.55      
C           90.46       13.99       -13.32      
C           89.47       15.9        -14.26      
C           90.49       15.41       -13.46      
C           94.25       17.43       -10.79      
O           93.39       14.76       -11.67      
O           90.69       18.65       -13.99      
C           91.8        12.33       -11.89      
C           91.76       20.82       -13.11      
H           91.54       21.02       -14.17      
H           91.01351    21.21037    -12.41829   
H           92.59       21.46       -12.96      
H           91.55       11.58       -12.59      
H           91.29292    12.33       -10.92513   
H           92.85       12.36       -11.6       
H           87.62       15.48       -15.38      
H           89.33       16.96       -14.37      
H           94.45       16.43       -10.54      
H           95.77       17.95       -9.37       
C           88.49       15.04       -14.79      
N           89.66       13.22       -13.93      
C           88.63       13.73       -14.59      
C           95.81       22.6        -8.14       
C           96.57       21.61       -7.81       
S           94.73       22.23       -9.5        
H           96.78       19.45       -8.33       
H           97.33       21.6        -7.04       
C           96.28       20.39       -8.49       
C           95.35       20.59       -9.46       
C           97.29       31.56       -1.89       
N           96.74       31.72       -3.08       
C           97.5        30.35       -1.37       
C           96.46       30.63       -3.8        
C           96.65       29.27       -3.4        
C           96.25       28.38       -4.5        
C           95.83       29.38       -5.59       
N           95.87       30.65       -5.05       
C           96.26       26.98       -4.69       
C           96.37       25.91       -3.56       
N           96.22       24.68       -4.04       
C           95.97       24.78       -5.39       
C           95.81       26.24       -7.26       
C           95.97       26.11       -5.86       
C           97.21       29.17       -2.12       
O           96.69       26.2        -2.41       
O           95.53       29.21       -6.75       
C           95.95       23.49       -3.24       
C           95.21       31.83       -5.55       
H           95.14       31.85       -6.62       
H           94.17652    31.75105    -5.21268    
H           95.77       32.67       -5.2        
H           96.33       23.64       -2.22       
H           94.90448    23.18249    -3.2195     
H           96.48       22.67       -3.7        
H           95.36       25.13       -9.12       
H           95.87       27.17       -7.76       
H           97.42       28.28       -1.69       
H           97.95       30.29       -0.34       
C           95.52       25.08       -8.02       
N           95.97       23.68       -6.1        
C           95.73       23.82       -7.38       
C           97.45       34.27       0.85        
C           96.78       34.82       -0.2        
S           98.11       32.73       0.44        
H           96.25       34.28       -2.24       
H           96.4        35.83       -0.25       
C           96.78       33.95       -1.31       
C           97.35       32.75       -1.1        
C           98.08       36.25       11.78       
N           97.25       36.89       11.05       
C           98.98       35.34       11.24       
C           97.26       36.69       9.76        
C           98.14       35.88       9.0         
C           97.7        35.87       7.59        
C           96.59       36.94       7.63        
N           96.49       37.41       8.89        
C           97.98       35.19       6.35        
C           99.12       34.2        6.34        
N           99.2        33.61       5.16        
C           98.21       34.17       4.31        
C           96.73       36.02       4.05        
C           97.57       35.3        4.94        
C           99.09       35.23       9.85        
O           99.79       33.85       7.29        
O           95.94       37.46       6.71        
C           100.44      33.07       4.69        
C           96.01       38.72       9.27        
H           95.8        39.26       8.39        
H           95.08756    38.64371    9.84566     
H           96.81       39.16       9.83        
H           100.76      33.64       3.92        
H           100.42635   32.03948    4.33512     
H           101.23      33.17       5.44        
H           96.02       36.32       2.06        
H           96.13       36.81       4.44        
H           99.87       34.59       9.52        
H           99.69       34.83       11.9        
C           96.66       35.68       2.7         
N           98.17       33.9        3.03        
C           97.43       34.67       2.22        
C           98.34       38.01       15.17       
C           99.06       36.89       15.25       
S           97.56       38.13       13.64       
H           99.53       35.16       13.99       
H           99.83       36.6        15.99       
C           98.9        36.0        14.13       
C           98.14       36.57       13.16       
C           101.97      47.67       19.05       
N           100.64      47.44       19.18       
C           102.83      46.67       18.56       
C           100.22      46.23       18.87       
C           101.0       45.12       18.44       
C           100.01      44.06       18.1        
C           98.64       44.67       18.52       
N           98.84       45.92       19.03       
C           100.19      42.73       17.7        
C           101.52      42.02       17.9        
N           101.38      40.73       17.46       
C           100.07      40.5        17.03       
C           98.1        41.62       16.42       
C           99.34       41.7        17.03       
C           102.34      45.42       18.27       
O           102.61      42.47       18.28       
O           97.59       44.14       18.25       
C           102.35      39.65       17.6        
C           97.86       46.78       19.6        
H           98.23       47.58       20.22       
H           97.35372    47.30054    18.7871     
H           97.28       46.22       20.28       
H           102.28      39.05       16.73       
H           102.35      39.06767    18.52141    
H           103.41      40.16       17.62       
H           96.86       40.3        15.22       
H           97.43       42.44       16.38       
H           102.97      44.61       17.96       
H           103.92      46.83       18.65       
C           97.77       40.4        15.74       
N           99.66       39.21       16.61       
C           98.52       39.21       15.92       
C           103.83      51.01       20.04       
C           102.5       51.13       20.35       
S           104.14      49.4        19.48       
H           100.57      50.03       20.03       
H           102.09      51.94       20.87       
C           101.7       50.04       19.96       
C           102.45      48.99       19.51       
C           112.83      57.16       21.7        
N           111.66      57.57       22.28       
C           112.91      56.17       20.72       
C           110.63      56.81       21.93       
C           110.56      55.76       21.0        
C           109.15      55.27       20.98       
C           108.4       56.29       21.82       
N           109.38      57.09       22.41       
C           108.52      54.13       20.55       
C           109.29      52.92       19.94       
N           108.37      51.94       19.49       
C           107.06      52.4        19.81       
C           105.81      53.99       21.06       
C           107.09      53.66       20.5        
C           111.75      55.45       20.34       
O           110.51      52.83       19.78       
O           107.26      56.4        22.18       
C           108.63      50.57       19.15       
C           109.2       57.93       23.58       
H           109.73      58.82       23.43       
H           109.51771   57.39568    24.47535    
H           108.09      58.16       23.59       
H           109.5       50.57       18.51       
H           108.69459   49.92406    20.02561    
H           107.92      50.21       18.42       
H           103.74      53.26       21.41       
H           105.58      54.85       21.67       
H           111.75      54.78       19.57       
H           113.81      55.89       20.22       
C           104.7       53.1        21.0        
N           106.0       51.57       19.65       
C           104.87      51.94       20.29       
C           115.4       59.16       23.76       
C           116.16      58.53       22.88       
S           113.7       58.97       23.53       
H           115.78      57.33       20.95       
H           117.2       58.75       22.78       
C           115.39      57.9        21.82       
C           114.03      57.92       22.19       
C           117.47      68.47       29.35       
N           118.51      67.7        29.13       
C           116.15      68.04       29.2        
C           118.15      66.53       28.56       
C           116.92      65.9        28.37       
C           117.13      64.57       27.69       
C           118.63      64.59       27.5        
N           119.2       65.68       28.19       
C           116.23      63.66       27.09       
C           114.68      63.66       27.32       
N           114.12      62.58       26.7        
C           115.07      61.95       25.97       
C           117.45      61.78       25.52       
C           116.4       62.45       26.2        
C           115.87      66.73       28.84       
O           113.97      64.37       28.0        
O           119.36      63.72       27.04       
C           112.66      62.42       26.69       
C           120.63      66.0        28.11       
H           120.78      67.08       27.9        
H           121.13075   65.75678    29.04712    
H           121.12      65.47       27.33       
H           112.45      61.31       26.63       
H           112.13536   62.99987    25.93065    
H           112.29      62.72       27.62       
H           117.91      60.03       24.3        
H           118.51      62.13       25.55       
H           114.82      66.53       28.67       
H           115.31      68.7        29.37       
C           117.13      60.6        24.78       
N           114.78      60.83       25.27       
C           115.82      60.17       24.67       
C           119.08      71.92       30.4        
C           117.79      72.0        30.45       
S           119.49      70.32       29.96       
H           116.01      70.91       30.01       
H           117.3       72.93       30.76       
C           117.03      70.87       30.11       
C           117.84      69.8        29.81       
H           45.28       21.38       -0.23       
H           119.75      72.74       30.29       
