392

C           50.92       39.58       38.81       
N           50.88       40.91       38.93       
C           49.8        38.78       38.52       
C           49.74       41.5        38.7        
C           48.5        40.89       38.46       
C           47.45       41.95       38.44       
C           48.26       43.21       38.73       
N           49.54       42.86       38.94       
C           46.06       42.08       38.31       
C           45.24       40.76       38.36       
N           43.88       41.07       38.31       
C           43.73       42.48       38.13       
C           44.92       44.36       37.68       
C           45.02       43.05       38.03       
C           48.57       39.48       38.4        
O           45.59       39.63       38.53       
O           47.86       44.37       38.85       
C           42.98       40.27       39.1        
C           50.51       43.79       39.49       
H           50.06       44.78       39.45       
H           50.85729    43.52776    40.48936    
H           51.33       43.91       38.8        
H           41.99       40.41       38.66       
H           42.92616    40.53246    40.15656    
H           43.27       39.21       38.87       
H           43.68       46.09       37.18       
H           45.88       44.92       37.56       
H           47.7        38.89       38.33       
H           49.69       37.7        38.61       
C           43.69       45.04       37.49       
N           42.55       43.01       37.91       
C           42.48       44.33       37.64       
C           54.6        39.05       39.41       
C           54.08       37.76       39.47       
S           53.36       40.26       39.05       
H           52.1        36.79       39.24       
H           54.71       36.96       39.76       
C           52.67       37.74       39.2        
C           52.17       39.03       39.11       
C           65.28       42.31       39.92       
N           64.28       43.25       39.83       
C           64.97       40.99       40.12       
C           63.0        42.82       39.97       
C           62.56       41.53       40.27       
C           61.08       41.45       40.21       
C           60.76       42.94       39.97       
N           61.93       43.7        39.8        
C           60.09       40.53       40.36       
C           60.21       39.14       40.93       
N           59.03       38.42       40.92       
C           57.97       39.27       40.45       
C           57.66       41.29       39.26       
C           58.59       40.52       40.07       
C           63.62       40.6        40.33       
O           61.3        38.65       41.19       
O           59.65       43.55       39.96       
C           58.75       37.07       41.44       
C           61.97       45.08       39.48       
H           60.97       45.44       39.14       
H           62.31255    45.66085    40.33637    
H           62.66       45.16       38.64       
H           57.92       36.49       40.98       
H           58.54183    37.04129    42.50955    
H           59.67       36.56       41.21       
H           55.75       41.4        38.38       
H           57.99       42.22       38.75       
H           63.41       39.54       40.47       
H           65.72       40.28       40.2        
C           56.38       40.82       39.04       
N           56.73       38.8        40.33       
C           55.89       39.67       39.65       
C           68.52       44.04       38.58       
C           68.85       42.86       39.18       
S           66.83       44.44       38.8        
H           67.91       41.24       40.36       
H           69.86       42.42       39.08       
C           67.77       42.25       39.87       
C           66.61       42.9        39.65       
C           77.11       48.96       33.75       
N           76.24       49.67       34.47       
C           76.81       47.61       33.49       
C           75.17       49.05       34.87       
C           74.88       47.63       34.79       
C           73.55       47.43       35.36       
C           73.09       48.86       35.79       
N           74.08       49.72       35.39       
C           72.76       46.26       35.59       
C           73.17       44.85       35.14       
N           72.24       43.94       35.66       
C           71.23       44.61       36.37       
C           70.49       46.8        37.05       
C           71.48       46.01       36.39       
C           75.81       46.94       34.1        
O           74.1        44.47       34.46       
O           72.06       49.19       36.33       
C           72.18       42.53       35.33       
C           73.95       51.16       35.39       
H           74.94       51.63       35.55       
H           73.4447     51.48483    34.48046    
H           73.31       51.51       36.2        
H           72.57       42.34       34.34       
H           72.7185     41.88962    36.02859    
H           71.12       42.24       35.29       
H           68.61       46.7        38.17       
H           70.36       47.83       36.94       
H           75.8        45.87       34.04       
H           77.52       47.0        32.94       
C           69.43       46.14       37.7        
N           70.28       43.96       37.08       
C           69.36       44.75       37.69       
C           79.85       51.34       32.38       
C           80.44       50.21       32.54       
S           78.21       51.37       32.93       
H           79.74       48.14       32.96       
H           81.42       50.04       32.13       
C           79.56       49.2        32.98       
C           78.3        49.65       33.27       
C           84.39       60.87       31.79       
N           83.38       60.76       30.87       
C           85.08       59.69       32.16       
C           82.99       59.58       30.46       
C           83.52       58.32       30.89       
C           82.67       57.25       30.41       
C           81.56       58.06       29.67       
N           81.8        59.43       29.79       
C           82.71       55.89       30.6        
C           83.99       55.11       30.93       
N           83.65       53.84       31.29       
C           82.28       53.64       31.22       
C           80.28       54.75       30.71       
C           81.63       54.85       30.84       
C           84.71       58.45       31.73       
O           85.15       55.5        30.98       
O           80.48       57.67       29.12       
C           84.62       52.85       31.7        
C           80.88       60.41       29.21       
H           80.33       60.0        28.34       
H           80.23474    60.81418    29.98999    
H           81.55       61.1        28.69       
H           85.51       52.88       31.11       
H           84.87361    52.93454    32.75671    
H           84.05       51.91       31.59       
H           78.57       53.59       31.37       
H           79.68       55.43       30.2        
H           85.22       57.58       32.08       
H           85.82       59.76       32.93       
C           79.65       53.61       31.28       
N           81.69       52.56       31.62       
C           80.37       52.54       31.67       
C           85.56       63.94       33.81       
C           84.57       64.37       32.98       
S           85.82       62.23       33.64       
H           83.44       63.61       31.36       
H           84.25       65.33       32.87       
C           84.16       63.37       32.11       
C           84.64       62.13       32.41       
C           92.76       68.29       40.96       
N           92.07       69.18       40.13       
C           92.52       67.01       41.01       
C           91.22       68.71       39.27       
C           91.0        67.34       39.1        
C           90.04       67.17       38.02       
C           89.77       68.6        37.55       
N           90.54       69.39       38.28       
C           89.45       66.06       37.36       
C           89.88       64.63       37.66       
N           89.16       63.79       36.8        
C           88.26       64.54       36.08       
C           87.49       66.69       35.58       
C           88.39       65.92       36.31       
C           91.64       66.52       40.06       
O           90.62       64.27       38.54       
O           89.17       69.0        36.54       
C           89.58       62.43       36.42       
C           90.84       70.74       37.94       
H           90.82       70.87       36.9        
H           90.12903    71.48582    38.29549    
H           91.88       70.9        38.21       
H           89.5        62.39       35.31       
H           89.01015    61.64206    36.91246    
H           90.64       62.25       36.71       
H           86.01       66.76       34.07       
H           87.5        67.75       35.62       
H           91.32       65.46       40.12       
H           92.89       66.35       41.79       
C           86.63       66.11       34.63       
N           87.34       63.89       35.33       
C           86.55       64.7        34.62       
C           93.98       70.5        43.93       
C           94.82       69.39       43.86       
S           92.94       70.44       42.54       
H           95.29       67.54       42.64       
H           95.66       69.2        44.53       
C           94.59       68.47       42.82       
C           93.56       68.93       41.99       
C           93.81       77.64       52.51       
N           93.01       77.86       51.45       
C           94.53       76.45       52.6        
C           92.92       76.87       50.56       
C           93.73       75.74       50.44       
C           93.49       75.13       49.11       
C           92.34       76.02       48.56       
N           92.04       77.05       49.45       
C           94.01       74.08       48.36       
C           95.35       73.49       48.74       
N           95.66       72.48       47.83       
C           94.72       72.35       46.84       
C           92.76       73.33       46.01       
C           93.7        73.31       47.06       
C           94.56       75.55       51.55       
O           96.07       73.74       49.6        
O           91.81       75.91       47.46       
C           97.0        71.82       47.8        
C           91.27       78.23       49.09       
H           90.97       78.14       48.06       
H           90.42704    78.43372    49.75032    
H           92.09       78.99       49.14       
H           97.72       72.51       48.07       
H           97.1021     70.94488    48.44175    
H           97.11       71.49       46.76       
H           92.04       72.34       44.27       
H           92.0        74.02       46.04       
H           95.19       74.68       51.66       
H           95.12       76.18       53.51       
C           92.88       72.42       44.94       
N           94.86       71.48       45.89       
C           93.94       71.55       44.92       
C           93.74       79.8        55.68       
C           92.45       79.56       55.27       
S           94.88       78.88       54.73       
H           91.5        78.63       53.54       
H           91.58       79.95       55.83       
C           92.37       78.86       54.07       
C           93.55       78.41       53.67       
C           97.14       84.6        65.04       
N           96.34       85.3        64.24       
C           97.62       83.34       64.71       
C           95.95       84.61       63.14       
C           96.35       83.37       62.63       
C           95.61       83.1        61.37       
C           94.59       84.16       61.36       
N           94.85       85.01       62.37       
C           95.84       82.19       60.35       
C           97.15       81.4        60.09       
N           97.06       80.62       58.94       
C           95.79       80.85       58.34       
C           93.76       81.89       58.77       
C           95.06       81.73       59.2        
C           97.34       82.74       63.47       
O           98.12       81.39       60.82       
O           93.64       84.33       60.53       
C           98.1        79.67       58.45       
C           94.01       86.26       62.58       
H           93.93       86.76       61.63       
H           93.06272    86.00228    63.05364    
H           94.61       86.85       63.23       
H           98.31       79.97       57.38       
H           97.83434    78.62171    58.58642    
H           99.01       79.9        59.13       
H           92.26       81.53       57.32       
H           93.01       82.4        59.35       
H           97.67       81.76       63.21       
H           98.37       82.9        65.38       
C           93.26       81.29       57.63       
N           95.36       80.19       57.3        
C           94.07       80.4        56.97       
C           98.69       87.11       67.69       
C           99.25       85.86       67.81       
S           97.42       86.97       66.5        
H           99.19       83.94       66.99       
H           100.19      85.62       68.42       
C           98.69       84.85       67.07       
C           97.69       85.23       66.24       
C           104.94      96.04       66.67       
N           103.65      96.27       67.06       
C           105.43      94.75       66.46       
C           102.9       95.19       67.21       
C           103.26      93.82       67.02       
C           102.14      92.97       67.44       
C           101.05      93.94       67.69       
N           101.61      95.23       67.61       
C           102.05      91.66       67.61       
C           103.24      90.79       68.0        
N           102.7       89.54       68.2        
C           101.27      89.47       68.06       
C           99.47       90.77       67.38       
C           100.88      90.7        67.63       
C           104.57      93.64       66.65       
O           104.45      91.01       68.1        
O           99.83       93.75       67.92       
C           103.53      88.38       68.21       
C           101.07      96.42       68.27       
H           101.81      96.7        68.98       
H           100.79814   97.19375    67.55201    
H           100.15      96.15       68.81       
H           103.22      87.67       67.39       
H           103.43079   87.80597    69.13128    
H           104.53      88.66       68.0        
H           97.56       89.72       67.36       
H           99.09       91.75       67.0        
H           104.88      92.65       66.48       
H           106.52      94.56       66.43       
C           98.67       89.67       67.57       
N           100.55      88.38       68.1        
C           99.24       88.42       67.9        
C           107.54      98.9        65.94       
C           106.45      99.49       66.46       
S           107.29      97.18       65.97       
H           104.46      98.76       67.18       
H           106.28      100.53      66.49       
C           105.47      98.57       66.82       
C           105.71      97.27       66.56       
C           118.08      101.54      63.37       
N           117.28      102.31      64.17       
C           117.52      100.4       62.87       
C           116.02      101.9       64.4        
C           115.34      100.82      63.89       
C           113.94      100.89      64.39       
C           113.91      102.15      65.27       
N           115.17      102.66      65.24       
C           112.81      100.09      64.29       
C           112.82      98.77       63.51       
N           111.65      98.1        63.79       
C           110.79      98.9        64.59       
C           110.53      100.98      65.54       
C           111.41      100.14      64.85       
C           116.2       100.04      63.09       
O           113.64      98.33       62.72       
O           113.04      102.76      65.94       
C           111.5       96.7        63.67       
C           115.61      103.73      66.19       
H           116.47      104.31      65.88       
H           115.78386   103.35446   67.19839    
H           114.79      104.38      66.2        
H           112.09      96.37       62.78       
H           111.8296    96.26786    64.61484    
H           110.4       96.55       63.46       
H           108.45      101.27      66.29       
H           110.83      101.94      65.86       
H           115.87      99.15       62.61       
H           118.07      99.63       62.26       
C           109.16      100.59      65.78       
N           109.58      98.51       64.86       
C           108.77      99.37       65.47       
C           121.3       103.65      62.38       
C           121.48      102.4       61.92       
S           119.82      103.68      63.35       
H           120.34      100.49      61.73       
H           122.29      102.0       61.37       
C           120.33      101.54      62.11       
C           119.35      102.11      62.87       
C           127.85      112.1       65.06       
N           128.34      110.82      65.04       
C           126.53      112.42      64.82       
C           127.47      109.88      64.64       
C           126.02      110.08      64.36       
C           125.52      108.69      64.12       
C           126.7       107.8       64.44       
N           127.81      108.56      64.67       
C           124.27      108.2       63.81       
C           122.96      109.03      63.93       
N           121.92      108.19      63.62       
C           122.4       106.93      63.2        
C           124.3       105.75      62.54       
C           123.81      106.92      63.13       
C           125.62      111.46      64.29       
O           122.91      110.21      64.37       
O           126.67      106.59      64.54       
C           120.51      108.59      63.62       
C           129.15      108.1       64.35       
H           129.68      108.9       63.79       
H           129.70794   107.75826   65.22179    
H           129.0       107.28      63.67       
H           119.89      107.79      63.98       
H           120.15073   108.75582   62.60436    
H           120.4       109.38      64.33       
H           124.13      103.83      61.78       
H           125.37      105.64      62.32       
H           124.59      111.73      64.07       
H           126.12      113.46      64.91       
C           123.57      104.66      62.19       
N           121.66      105.82      63.01       
C           122.19      104.76      62.49       
C           130.95      114.04      66.6        
C           130.07      114.97      66.23       
S           130.36      112.48      66.14       
H           127.97      114.98      65.38       
H           130.21      115.96      66.39       
C           128.84      114.34      65.69       
C           128.88      113.02      65.5        
H           41.61       44.58       37.05       
H           132.01      114.26      66.7        
