392

C           47.1        7.31        35.52       
N           46.74       6.13        34.9        
C           46.23       8.41        35.31       
C           45.69       6.05        34.19       
C           44.72       7.1         34.02       
C           43.71       6.63        33.06       
C           44.2        5.18        32.75       
N           45.25       4.91        33.49       
C           42.54       7.19        32.46       
C           41.9        8.54        32.84       
N           40.9        8.78        31.97       
C           40.71       7.68        31.07       
C           41.43       5.51        30.57       
C           41.64       6.66        31.37       
C           45.07       8.34        34.57       
O           42.29       9.26        33.76       
O           43.67       4.28        32.14       
C           40.19       10.04       31.91       
C           45.91       3.63        33.45       
H           46.95       3.82        33.63       
H           45.46516    2.96627     34.1914     
H           45.79       3.14        32.54       
H           39.13       9.91        32.0        
H           40.46133    10.56838    30.99605    
H           40.48       10.68       32.8        
H           40.48       4.69        28.88       
H           42.1        4.7         30.62       
H           44.54       9.27        34.26       
H           46.52       9.38        35.72       
C           40.46       5.58        29.57       
N           39.75       7.69        30.25       
C           39.63       6.67        29.4        
C           50.83       7.04        36.57       
C           50.37       8.14        37.3        
S           49.53       6.3         35.73       
H           48.45       9.26        37.29       
H           50.98       8.82        37.91       
C           48.92       8.34        37.11       
C           48.32       7.41        36.27       
C           60.93       4.55        32.72       
N           60.84       5.63        33.51       
C           59.83       3.66        32.6        
C           59.63       5.96        33.92       
C           58.47       5.23        33.82       
C           57.34       5.99        34.44       
C           58.02       7.19        35.04       
N           59.31       7.14        34.62       
C           55.92       5.75        34.54       
C           55.24       4.76        33.58       
N           53.88       4.75        33.92       
C           53.65       5.6         34.94       
C           54.64       7.08        36.52       
C           54.81       6.27        35.38       
C           58.6        4.05        33.15       
O           55.67       4.05        32.68       
O           57.43       8.15        35.59       
C           52.82       4.01        33.19       
C           60.23       8.32        34.59       
H           61.31       8.0         34.65       
H           60.10476    8.90447     33.67851    
H           60.12       8.91        35.49       
H           51.84       4.5         33.17       
H           52.71522    2.99017     33.56021    
H           53.19       4.04        32.17       
H           53.03       8.05        37.66       
H           55.44       7.58        37.0        
H           57.71       3.4         32.98       
H           59.88       2.72        32.04       
C           53.26       7.39        36.87       
N           52.39       5.85        35.27       
C           52.23       6.75        36.3        
C           64.62       3.9         31.61       
C           63.9        2.88        31.11       
S           63.61       4.96        32.55       
H           61.68       2.28        31.06       
H           64.28       1.99        30.53       
C           62.48       2.98        31.41       
C           62.19       4.11        32.17       
C           75.66       4.2         32.73       
N           74.91       5.34        33.11       
C           74.95       2.98        32.6        
C           73.61       5.3         33.07       
C           72.84       4.17        32.59       
C           71.42       4.61        32.51       
C           71.51       6.05        32.99       
N           72.77       6.35        33.33       
C           70.24       3.94        32.11       
C           70.26       2.44        31.66       
N           68.96       2.07        31.36       
C           68.08       3.09        31.47       
C           68.02       5.39        32.15       
C           68.82       4.32        31.86       
C           73.55       2.95        32.49       
O           71.15       1.65        31.44       
O           70.57       6.85        33.12       
C           68.58       0.7         31.14       
C           73.15       7.62        33.88       
H           73.85       7.49        34.73       
H           73.67579    8.30921     33.21921    
H           72.27       8.07        34.23       
H           69.28       0.09        30.66       
H           68.29489    0.26885     32.09965    
H           67.75       0.73        30.47       
H           65.94       6.05        32.13       
H           68.51       6.27        32.53       
H           73.11       2.11        32.06       
H           75.59       2.04        32.56       
C           66.6        5.25        32.06       
N           66.81       3.02        31.25       
C           66.04       4.07        31.69       
C           79.21       5.41        33.36       
C           79.32       4.03        33.14       
S           77.58       6.0         33.26       
H           77.89       2.44        32.74       
H           80.27       3.43        33.03       
C           78.05       3.47        32.96       
C           77.07       4.43        32.94       
C           88.1        10.73       36.46       
N           87.08       11.58       36.17       
C           87.95       9.32        36.54       
C           86.01       10.99       35.79       
C           85.81       9.59        35.57       
C           84.54       9.41        34.96       
C           83.87       10.79       34.96       
N           84.89       11.62       35.34       
C           83.95       8.21        34.52       
C           84.75       7.0         34.06       
N           83.85       6.06        33.62       
C           82.52       6.49        33.77       
C           81.29       8.32        34.6        
C           82.53       7.81        34.37       
C           86.84       8.73        35.97       
O           85.94       6.86        33.92       
O           82.73       11.23       34.61       
C           84.17       4.9         32.76       
C           84.82       13.09       35.36       
H           85.13       13.42       36.35       
H           85.52929    13.63451    34.73668    
H           83.82       13.44       35.08       
H           84.92       5.23        32.08       
H           84.58437    4.11489     33.39245    
H           83.28       4.6         32.15       
H           79.12       7.9         34.53       
H           81.11       9.32        34.99       
H           86.64       7.69        36.04       
H           88.75       8.72        36.94       
C           80.15       7.54        34.3        
N           81.51       5.83        33.35       
C           80.3        6.35        33.63       
C           91.1        13.09       37.75       
C           91.63       11.88       37.36       
S           89.33       13.08       37.46       
H           90.84       9.91        36.64       
H           92.65       11.68       37.42       
C           90.61       10.89       37.0        
C           89.35       11.42       36.88       
C           96.84       20.47       43.63       
N           95.51       20.47       43.59       
C           97.55       19.43       43.05       
C           94.95       19.61       42.84       
C           95.52       18.58       42.03       
C           94.34       17.93       41.35       
C           93.13       18.62       41.89       
N           93.54       19.7        42.68       
C           94.24       16.84       40.48       
C           95.49       16.25       39.88       
N           95.1        15.24       39.05       
C           93.75       15.09       39.01       
C           91.74       16.0        39.85       
C           93.15       16.1        39.79       
C           96.91       18.57       42.21       
O           96.68       16.46       40.1        
O           91.98       18.44       41.65       
C           95.93       14.77       37.95       
C           92.61       20.51       43.55       
H           93.02       20.68       44.51       
H           92.31104    21.43469    43.05637    
H           91.79       19.79       43.78       
H           95.48       15.03       36.99       
H           96.03827    13.68734    38.01496    
H           96.83       15.29       37.91       
H           90.09       14.89       39.12       
H           91.15       16.62       40.56       
H           97.57       17.79       41.68       
H           98.63       19.32       43.19       
C           91.16       15.04       39.11       
N           93.13       14.22       38.24       
C           91.81       14.23       38.26       
C           97.7        23.06       46.28       
C           98.86       22.6        45.88       
S           96.37       22.42       45.38       
H           99.63       21.19       44.27       
H           99.81       23.14       46.12       
C           98.77       21.74       44.71       
C           97.47       21.51       44.5        
C           96.09       30.71       54.34       
N           95.08       30.28       53.61       
C           97.29       30.05       54.3        
C           95.37       29.31       52.74       
C           96.57       28.6        52.5        
C           96.45       27.7        51.28       
C           94.97       27.96       50.85       
N           94.44       28.84       51.8        
C           97.29       26.85       50.54       
C           98.78       26.75       50.71       
N           99.31       25.9        49.8        
C           98.28       25.38       48.97       
C           95.91       25.31       48.75       
C           97.01       25.86       49.43       
C           97.6        29.03       53.38       
O           99.41       27.35       51.56       
O           94.28       27.52       49.9        
C           100.59      25.2        50.0        
C           93.05       28.89       52.11       
H           92.89       28.76       53.15       
H           92.51855    29.6978     51.60689    
H           92.6        27.97       51.72       
H           100.79      24.5        49.18       
H           101.43928   25.86527    50.1557     
H           100.42      24.51       50.79       
H           95.25       24.01       47.16       
H           94.9        25.5        49.18       
H           98.54       28.67       53.27       
H           98.06       30.38       55.0        
C           96.11       24.5        47.64       
N           98.5        24.48       48.01       
C           97.4        24.07       47.29       
C           95.72       33.51       57.08       
C           94.52       32.93       56.84       
S           96.99       32.79       56.03       
H           93.63       31.41       55.43       
H           93.61       33.31       57.34       
C           94.52       32.01       55.79       
C           95.78       31.76       55.27       
C           100.31      41.35       63.51       
N           99.14       41.56       62.97       
C           101.05      40.23       63.28       
C           98.62       40.59       62.25       
C           99.15       39.3        62.12       
C           98.28       38.56       61.2        
C           97.08       39.49       60.96       
N           97.39       40.66       61.61       
C           98.38       37.31       60.54       
C           99.71       36.61       60.25       
N           99.41       35.48       59.5        
C           98.06       35.46       59.15       
C           95.98       36.44       59.57       
C           97.36       36.52       59.79       
C           100.42      39.14       62.74       
O           100.87      36.84       60.65       
O           96.05       39.39       60.32       
C           100.44      34.57       59.0        
C           96.5        41.78       61.58       
H           95.76       41.72       60.75       
H           96.03493    41.86858    62.56182    
H           97.16       42.55       61.29       
H           100.57      34.67       57.93       
H           100.306     33.51207    59.22569    
H           101.36      34.83       59.5        
H           94.32       35.38       58.77       
H           95.41       37.17       60.04       
H           100.92      38.16       62.68       
H           102.09      40.0        63.53       
C           95.38       35.4        58.82       
N           97.56       34.55       58.3        
C           96.22       34.53       58.1        
C           102.39      44.51       64.54       
C           101.11      44.81       64.48       
S           102.58      42.78       64.29       
H           99.1        43.87       64.41       
H           100.81      45.76       64.69       
C           100.17      43.75       64.33       
C           100.83      42.58       64.12       
C           112.24      49.48       63.46       
N           111.19      50.12       62.97       
C           112.09      48.31       64.13       
C           110.02      49.54       63.08       
C           109.74      48.33       63.65       
C           108.26      48.13       63.58       
C           107.76      49.51       63.12       
N           108.89      50.3        62.84       
C           107.51      47.02       63.86       
C           108.05      45.6        63.87       
N           107.04      44.66       64.04       
C           105.8       45.39       64.15       
C           104.85      47.48       64.28       
C           106.01      46.76       64.05       
C           110.89      47.72       64.22       
O           109.18      45.21       63.79       
O           106.58      49.9        63.06       
C           107.21      43.19       64.01       
C           108.89      51.72       62.66       
H           109.54      52.29       63.23       
H           108.95449   51.96362    61.59953    
H           107.91      52.07       63.01       
H           106.45      42.78       63.38       
H           106.99921   42.75436    64.98667    
H           108.22      42.92       63.72       
H           102.74      47.24       64.78       
H           104.78      48.57       64.21       
H           110.91      46.78       64.63       
H           112.98      47.83       64.54       
C           103.65      46.76       64.45       
N           104.71      44.68       64.37       
C           103.57      45.38       64.52       
C           115.9       50.98       63.31       
C           115.04      52.0        63.02       
S           115.02      49.53       63.72       
H           112.91      52.25       62.81       
H           115.36      53.04       62.79       
C           113.67      51.58       62.99       
C           113.48      50.3        63.42       
C           125.6       52.05       68.34       
N           125.49      52.5        67.15       
C           124.64      51.19       68.86       
C           124.36      52.28       66.48       
C           123.32      51.4        66.84       
C           122.23      51.44       65.88       
C           122.79      52.31       64.79       
N           124.03      52.79       65.24       
C           120.97      50.82       65.7        
C           120.56      49.57       66.42       
N           119.25      49.4        66.17       
C           118.8       50.21       65.15       
C           119.35      52.24       63.98       
C           119.74      51.22       64.92       
C           123.58      50.75       68.04       
O           121.2       48.94       67.3        
O           122.24      52.75       63.81       
C           118.59      48.07       66.51       
C           124.79      53.75       64.49       
H           125.88      53.69       64.53       
H           124.56268   54.78809    64.73247    
H           124.61      53.59       63.38       
H           119.3       47.25       66.62       
H           117.94671   48.07739    67.3899     
H           117.91      47.79       65.67       
H           117.76      52.99       62.8        
H           119.98      53.08       63.77       
H           122.9       50.05       68.45       
H           124.65      50.96       69.96       
C           118.06      52.19       63.45       
N           117.58      50.16       64.64       
C           117.28      51.1        63.74       
C           128.59      54.16       69.73       
C           128.37      53.15       70.68       
S           127.52      53.95       68.34       
H           126.99      51.42       70.8        
H           128.8       53.1        71.68       
C           127.3       52.27       70.23       
C           126.71      52.62       69.1        
C           136.0       62.27       68.36       
N           135.8       61.75       69.6        
C           135.19      61.93       67.26       
C           135.0       60.74       69.66       
C           134.07      60.3        68.64       
C           133.3       59.18       69.27       
C           133.89      59.11       70.68       
N           134.78      60.11       70.85       
C           132.25      58.35       68.83       
C           131.61      58.51       67.4        
N           130.6       57.63       67.29       
C           130.5       56.85       68.48       
C           131.41      56.55       70.66       
C           131.5       57.23       69.42       
C           134.2       60.92       67.38       
O           131.75      59.44       66.59       
O           133.68      58.31       71.52       
C           129.89      57.45       66.1        
C           135.34      60.51       72.2        
H           136.39      60.86       72.08       
H           134.76669   61.31404    72.66145    
H           135.35      59.6        72.79       
H           128.88      57.43       66.28       
H           130.24796   56.68293    65.41329    
H           129.97      58.41       65.57       
H           130.43      54.95       71.67       
H           132.07      56.76       71.47       
H           133.76      60.49       66.49       
H           135.41      62.39       66.3        
C           130.46      55.49       70.79       
N           129.67      55.87       68.53       
C           129.6       55.2        69.7        
C           138.26      65.28       67.4        
C           138.27      65.1        68.74       
S           137.2       64.12       66.77       
H           137.59      63.71       70.36       
H           138.89      65.64       69.46       
C           137.53      63.99       69.27       
C           136.84      63.37       68.29       
H           38.73       6.6         28.78       
H           138.85      66.01       66.81       
