392

C           115.76      22.6        41.61       
N           115.83      21.64       40.73       
C           116.64      22.72       42.71       
C           116.7       20.7        41.06       
C           117.53      20.55       42.21       
C           118.14      19.19       42.16       
C           117.59      18.61       40.82       
N           116.89      19.63       40.19       
C           119.0       18.49       42.98       
C           119.7       19.1        44.16       
N           120.48      18.14       44.76       
C           120.39      16.99       44.06       
C           119.27      15.9        42.34       
C           119.46      17.09       43.01       
C           117.49      21.65       43.06       
O           119.73      20.2        44.53       
O           117.85      17.59       40.21       
C           121.18      18.33       46.04       
C           116.54      19.53       38.82       
H           115.61      20.02       38.61       
H           117.22546   20.10723    38.19948    
H           116.34      18.54       38.63       
H           122.25      18.07       46.07       
H           120.71025   17.89583    46.92257    
H           121.29      19.41       46.11       
H           119.61      13.71       42.28       
H           118.69      15.85       41.49       
H           118.11      21.68       43.9        
H           116.49      23.51       43.49       
C           119.83      14.68       42.81       
N           121.02      15.94       44.42       
C           120.69      14.73       43.87       
C           112.8       24.46       40.17       
C           113.27      25.26       41.23       
S           113.73      23.06       39.84       
H           114.99      25.02       42.6        
H           112.89      26.28       41.37       
C           114.34      24.59       41.88       
C           114.71      23.49       41.21       
C           103.69      26.24       33.81       
N           104.21      27.31       34.51       
C           104.35      25.05       33.7        
C           105.21      27.02       35.32       
C           106.0       25.87       35.27       
C           107.09      26.03       36.27       
C           106.78      27.42       36.88       
N           105.69      27.97       36.27       
C           108.22      25.21       36.68       
C           108.62      23.97       35.94       
N           109.78      23.5        36.5        
C           110.24      24.27       37.54       
C           109.66      26.16       38.76       
C           109.3       25.36       37.66       
C           105.46      24.86       34.45       
O           108.08      23.49       34.9        
O           107.38      28.01       37.79       
C           110.2       22.13       36.31       
C           105.12      29.22       36.7        
H           104.88      29.16       37.71       
H           105.65756   30.14153    36.4766     
H           104.13      29.32       36.18       
H           110.55      21.75       37.22       
H           110.9292    22.0592     35.50293    
H           109.26      21.62       36.0        
H           110.96      26.47       40.47       
H           109.06      26.96       39.06       
H           105.97      23.96       34.35       
H           103.97      24.24       33.14       
C           110.79      25.88       39.57       
N           111.32      23.99       38.26       
C           111.65      24.87       39.31       
C           100.4       27.39       32.16       
C           100.68      26.2        31.61       
S           101.49      27.82       33.43       
H           102.37      24.79       31.68       
H           100.16      25.81       30.74       
C           101.94      25.71       32.1        
C           102.48      26.47       33.06       
C           91.56       33.35       28.39       
N           91.97       33.47       29.68       
C           92.4        32.72       27.48       
C           93.14       32.83       29.98       
C           94.01       32.02       29.11       
C           95.11       31.39       29.93       
C           94.95       32.14       31.26       
N           93.78       32.87       31.19       
C           96.05       30.45       29.74       
C           96.45       29.76       28.45       
N           97.56       28.95       28.69       
C           97.95       28.97       30.0        
C           97.5        29.75       32.07       
C           97.1        29.85       30.68       
C           93.49       31.99       27.84       
O           95.95       29.88       27.25       
O           95.53       32.0        32.31       
C           98.43       28.53       27.59       
C           93.36       33.59       32.36       
H           93.64       33.02       33.22       
H           93.75988    34.60398    32.35286    
H           92.32       33.72       32.18       
H           99.39       28.34       28.08       
H           98.0907     27.60798    27.11793    
H           98.53       29.35       26.9        
H           98.97       29.06       33.52       
H           96.92       30.21       32.83       
H           93.93       31.43       27.02       
H           92.12       32.74       26.48       
C           98.66       29.1        32.54       
N           98.95       28.19       30.41       
C           99.37       28.31       31.69       
C           89.77       36.76       28.14       
C           89.75       36.25       26.86       
S           90.53       35.67       29.16       
H           90.3        34.43       25.77       
H           89.36       36.78       26.0        
C           90.28       34.93       26.75       
C           90.72       34.44       27.97       
C           88.77       47.13       32.0        
N           88.13       46.2        32.61       
C           89.56       46.94       30.87       
C           88.18       44.94       32.14       
C           88.89       44.54       30.95       
C           88.73       43.12       30.78       
C           87.95       42.67       32.03       
N           87.64       43.81       32.73       
C           89.02       42.1        29.85       
C           89.47       42.58       28.47       
N           89.61       41.45       27.66       
C           89.33       40.3        28.36       
C           88.61       39.45       30.49       
C           88.92       40.61       29.73       
C           89.59       45.64       30.34       
O           89.52       43.72       28.03       
O           87.61       41.56       32.37       
C           90.37       41.53       26.41       
C           86.64       43.85       33.78       
H           86.99       44.51       34.48       
H           85.68934    44.28717    33.47468    
H           86.54       42.89       34.3        
H           91.08       40.67       26.33       
H           89.64682    41.57213    25.59555    
H           90.89       42.38       26.49       
H           88.8        37.35       30.7        
H           88.13       39.55       31.46       
H           90.26       45.45       29.44       
H           90.15       47.72       30.45       
C           88.88       38.19       30.0        
N           89.52       39.06       27.85       
C           89.35       37.98       28.65       
C           89.37       50.09       34.63       
C           89.43       50.61       33.34       
S           89.07       48.4        34.49       
H           89.07       49.86       31.21       
H           89.52       51.7        33.22       
C           89.25       49.65       32.27       
C           88.89       48.37       32.78       
C           89.69       55.65       44.17       
N           90.14       54.4        44.04       
C           89.16       56.33       43.08       
C           90.08       53.85       42.86       
C           89.55       54.38       41.65       
C           89.76       53.33       40.62       
C           90.5        52.21       41.39       
N           90.61       52.61       42.69       
C           89.65       53.21       39.24       
C           89.49       54.51       38.44       
N           89.3        54.09       37.11       
C           89.46       52.68       36.95       
C           89.46       50.69       38.29       
C           89.55       52.11       38.25       
C           89.03       55.66       41.82       
O           89.44       55.65       38.8        
O           90.93       51.13       40.94       
C           88.89       54.97       35.99       
C           91.5        52.01       43.65       
H           91.45       50.94       43.77       
H           92.5248     52.29583    43.41297    
H           91.3        52.41       44.63       
H           87.89       54.77       35.68       
H           89.66062    55.07605    35.22645    
H           88.76       56.0        36.44       
H           89.33       48.9        37.15       
H           89.48       50.16       39.24       
H           88.55       56.16       41.0        
H           88.82       57.38       43.21       
C           89.29       50.0        37.1        
N           89.36       51.99       35.79       
C           89.39       50.65       35.92       
C           90.91       57.18       47.67       
C           90.01       58.09       47.2        
S           90.95       55.75       46.65       
H           88.86       58.33       45.33       
H           89.83       59.04       47.66       
C           89.54       57.68       45.86       
C           89.96       56.4        45.41       
C           94.76       57.55       58.03       
N           95.26       56.55       57.23       
C           93.98       58.54       57.45       
C           94.87       56.52       55.95       
C           93.83       57.32       55.38       
C           93.54       56.81       54.03       
C           94.47       55.68       53.87       
N           95.16       55.52       55.06       
C           92.67       57.23       53.04       
C           91.47       58.13       53.38       
N           90.79       58.32       52.21       
C           91.41       57.71       51.15       
C           93.17       56.25       50.53       
C           92.5        56.9        51.64       
C           93.39       58.38       56.19       
O           91.08       58.66       54.44       
O           94.54       54.87       52.92       
C           89.46       58.97       52.15       
C           95.85       54.31       55.42       
H           96.3        54.33       56.44       
H           95.1529     53.47348    55.4688     
H           96.62       54.08       54.72       
H           89.2        58.94       53.17       
H           89.58825    59.98174    51.76525    
H           88.81       58.28       51.6        
H           93.12       55.64       48.51       
H           93.98       55.61       50.76       
H           92.7        59.1        55.79       
H           93.69       59.41       58.06       
C           92.62       56.25       49.27       
N           90.95       57.82       49.91       
C           91.59       57.07       48.97       
C           96.66       57.14       61.42       
C           95.86       58.19       61.53       
S           96.73       56.6        59.81       
H           94.38       59.32       60.23       
H           95.81       58.66       62.54       
C           95.11       58.56       60.38       
C           95.34       57.59       59.43       
C           102.91      53.53       69.91       
N           102.95      52.95       68.7        
C           102.3       54.79       70.08       
C           102.34      53.51       67.69       
C           101.66      54.7        67.68       
C           100.98      54.79       66.39       
C           101.67      53.74       65.56       
N           102.34      52.95       66.46       
C           100.09      55.68       65.77       
C           99.82       57.07       66.34       
N           98.96       57.73       65.51       
C           98.61       56.95       64.42       
C           98.91       54.88       63.38       
C           99.24       55.66       64.53       
C           101.67      55.38       68.94       
O           100.38      57.57       67.29       
O           101.55      53.49       64.39       
C           98.56       59.11       65.72       
C           102.64      51.62       66.13       
H           103.52      51.29       66.62       
H           101.83266   50.92597    66.3637     
H           102.96      51.56       65.1        
H           97.73       59.42       65.12       
H           99.31532    59.8512     65.45882    
H           98.35       59.18       66.76       
H           97.74       54.61       61.68       
H           99.44       53.91       63.27       
H           101.21      56.34       69.1        
H           102.3       55.19       71.03       
C           97.99       55.3        62.46       
N           97.83       57.42       63.44       
C           97.56       56.61       62.46       
C           104.71      50.75       71.96       
C           104.49      51.79       72.79       
S           104.02      51.07       70.39       
H           103.58      53.8        72.66       
H           104.86      51.84       73.8        
C           103.84      52.87       72.12       
C           103.62      52.68       70.83       
C           108.12      40.34       73.26       
N           107.97      41.16       74.34       
C           108.05      40.92       71.97       
C           107.84      42.45       74.14       
C           107.84      43.13       72.88       
C           107.49      44.51       73.15       
C           107.46      44.62       74.66       
N           107.66      43.38       75.21       
C           107.15      45.61       72.36       
C           107.42      45.67       70.81       
N           107.01      46.89       70.35       
C           106.32      47.57       71.37       
C           105.9       47.65       73.76       
C           106.43      46.9        72.63       
C           108.02      42.33       71.8        
O           107.93      44.76       70.12       
O           107.41      45.63       75.24       
C           107.17      47.32       68.97       
C           108.19      43.25       76.58       
H           109.07      43.83       76.64       
H           107.44507   43.29257    77.37459    
H           108.65      42.25       76.55       
H           107.71      48.26       68.99       
H           106.27414   47.40206    68.35453    
H           107.96      46.68       68.5        
H           104.94      49.44       74.37       
H           105.83      47.19       74.74       
H           107.98      42.72       70.81       
H           108.26      40.31       71.06       
C           105.37      48.89       73.52       
N           105.9       48.77       71.26       
C           105.37      49.46       72.26       
C           108.06      36.48       73.18       
C           107.95      36.87       74.49       
S           108.35      37.86       72.18       
H           108.11      38.75       75.64       
H           107.77      36.23       75.34       
C           108.18      38.25       74.66       
C           108.26      38.94       73.49       
C           106.95      26.69       68.3        
N           106.23      26.89       69.39       
C           107.6       27.73       67.61       
C           106.21      28.14       69.77       
C           106.83      29.29       69.2        
C           106.73      30.41       70.12       
C           105.97      29.79       71.31       
N           105.6       28.52       70.98       
C           107.14      31.73       70.04       
C           107.55      32.54       68.79       
N           107.94      33.84       69.17       
C           107.69      34.02       70.56       
C           107.08      32.95       72.51       
C           107.18      32.83       71.1        
C           107.51      29.05       68.03       
O           107.61      32.15       67.67       
O           105.49      30.49       72.26       
C           108.88      34.58       68.4        
C           104.74      27.76       71.91       
H           105.29      26.85       72.06       
H           103.75538   27.59121    71.47395    
H           104.63      28.33       72.81       
H           109.07      35.52       68.85       
H           109.8396    34.06593    68.34517    
H           108.45      34.79       67.39       
H           107.18      34.21       74.28       
H           106.88      32.09       73.12       
H           108.13      29.8        67.63       
H           108.19      27.59       66.78       
C           107.34      34.14       73.21       
N           107.97      35.16       71.19       
C           107.74      35.23       72.53       
C           107.13      23.33       66.33       
C           106.57      23.06       67.59       
S           107.5       25.02       66.12       
H           106.05      24.22       69.36       
H           106.39      22.05       67.98       
C           106.38      24.24       68.34       
C           106.93      25.33       67.75       
C           110.52      16.61       58.13       
N           110.27      16.01       59.3        
C           110.51      17.99       57.95       
C           109.89      16.81       60.25       
C           109.62      18.26       60.13       
C           109.21      18.71       61.53       
C           109.2       17.43       62.33       
N           109.64      16.39       61.55       
C           108.93      20.06       62.05       
C           108.83      21.32       61.17       
N           108.35      22.4        61.87       
C           108.16      22.0        63.15       
C           108.21      20.11       64.65       
C           108.46      20.6        63.35       
C           109.93      18.81       58.86       
O           108.88      21.34       59.99       
O           109.05      17.27       63.52       
C           107.82      23.6        61.19       
C           110.05      15.12       62.11       
H           110.46      15.29       63.08       
H           109.23857   14.39251    62.08901    
H           110.91      14.71       61.57       
H           107.78      24.48       61.9        
H           106.77791   23.44297    60.91163    
H           108.32      23.83       60.23       
H           107.55      20.59       66.5        
H           108.43      19.1        64.93       
H           109.95      19.88       58.68       
H           110.86      18.44       57.03       
C           107.78      21.0        65.58       
N           107.73      22.82       64.08       
C           107.58      22.36       65.31       
C           111.71      13.68       55.79       
C           111.57      14.79       55.03       
S           111.29      14.02       57.43       
H           111.08      16.9        55.36       
H           111.64      14.83       53.9        
C           111.13      15.93       55.76       
C           110.89      15.68       57.07       
H           120.48      13.93       44.57       
H           112.42      12.92       55.49       
