392

C           50.07       8.01        0.73        
N           49.39       7.58        -0.42       
C           49.37       8.64        1.79        
C           48.02       7.8         -0.42       
C           47.24       8.42        0.58        
C           45.82       8.37        0.19        
C           45.92       7.68        -1.19       
N           47.22       7.35        -1.43       
C           44.64       8.82        0.77        
C           44.53       9.23        2.22        
N           43.21       9.49        2.48        
C           42.44       9.41        1.39        
C           42.5        8.7         -0.8        
C           43.25       8.93        0.32        
C           47.99       8.9         1.71        
O           45.34       9.19        3.18        
O           45.1        7.45        -2.05       
C           42.71       9.91        3.76        
C           47.6        6.62        -2.61       
H           48.65       6.73        -2.79       
H           47.39761    5.55223     -2.52625    
H           46.95       6.99        -3.5        
H           41.77       9.42        3.98        
H           42.54324    10.97307    3.9337      
H           43.43       9.53        4.42        
H           40.68       8.83        -1.78       
H           42.99       8.25        -1.6        
H           47.55       9.26        2.64        
H           49.9        9.06        2.7         
C           41.13       9.08        -0.9        
N           41.15       9.68        1.4         
C           40.42       9.48        0.21        
C           53.64       7.23        -0.4        
C           53.79       7.81        0.77        
S           51.96       7.16        -0.84       
H           52.44       8.57        2.32        
H           54.74       8.07        1.16        
C           52.5        8.15        1.4         
C           51.43       7.85        0.64        
C           60.64       4.0         -8.38       
N           61.12       4.82        -7.36       
C           59.31       3.56        -8.35       
C           60.26       5.22        -6.41       
C           58.89       4.9         -6.41       
C           58.24       5.6         -5.28       
C           59.36       6.46        -4.76       
N           60.55       6.09        -5.44       
C           56.99       5.63        -4.67       
C           55.76       5.18        -5.35       
N           54.67       5.41        -4.59       
C           55.05       6.03        -3.42       
C           56.87       6.65        -2.16       
C           56.43       6.13        -3.39       
C           58.42       4.0         -7.41       
O           55.6        4.75        -6.5        
O           59.42       7.25        -3.79       
C           53.28       5.03        -4.8        
C           61.87       6.57        -5.02       
H           62.68       5.86        -5.15       
H           62.22467    7.46754     -5.52668    
H           61.82       6.83        -3.95       
H           52.51       5.54        -4.2        
H           53.08346    3.96305     -4.69471    
H           53.02       5.24        -5.82       
H           56.46       7.74        -0.4        
H           57.97       6.77        -2.0        
H           57.47       3.61        -7.4        
H           58.92       2.98        -9.12       
C           55.97       7.14        -1.17       
N           54.18       6.41        -2.51       
C           54.62       7.03        -1.43       
C           63.61       3.06        -10.59      
C           62.66       2.14        -10.79      
S           63.08       4.33        -9.62       
H           60.6        1.92        -10.12      
H           62.78       1.36        -11.51      
C           61.46       2.45        -10.09      
C           61.64       3.44        -9.21       
C           73.6        2.62        -15.53      
N           73.39       3.34        -14.42      
C           72.5        2.02        -16.11      
C           72.22       3.46        -13.88      
C           71.03       2.8         -14.38      
C           69.94       3.15        -13.44      
C           70.6        4.04        -12.34      
N           71.95       4.26        -12.73      
C           68.64       2.74        -13.24      
C           67.98       1.66        -14.08      
N           66.65       1.52        -13.75      
C           66.4        2.36        -12.66      
C           67.3        3.89        -11.2       
C           67.55       3.08        -12.3       
C           71.24       1.99        -15.51      
O           68.43       0.97        -15.0       
O           70.27       4.55        -11.28      
C           65.59       1.14        -14.68      
C           73.01       4.36        -11.69      
H           73.87       3.78        -11.94      
H           73.33384    5.38304     -11.49864   
H           72.59       3.91        -10.81      
H           64.61       1.02        -14.27      
H           65.40695    1.8722      -15.46643   
H           65.82       0.16        -15.06      
H           65.8        4.53        -9.86       
H           68.04       4.56        -10.91      
H           70.45       1.42        -15.91      
H           72.71       1.47        -17.02      
C           66.02       3.86        -10.63      
N           65.13       2.33        -12.16      
C           64.9        3.14        -11.13      
C           77.14       3.55        -16.39      
C           76.7        3.0         -17.53      
S           76.02       3.32        -15.03      
H           74.75       2.23        -18.27      
H           77.14       3.07        -18.47      
C           75.36       2.52        -17.4       
C           74.82       2.81        -16.16      
C           86.61       8.58        -14.11      
N           85.45       9.16        -13.56      
C           86.61       7.56        -14.96      
C           84.33       8.76        -14.13      
C           84.18       7.65        -14.99      
C           82.68       7.43        -15.24      
C           82.03       8.48        -14.37      
N           83.05       9.25        -13.76      
C           81.93       6.47        -15.97      
C           82.53       5.63        -17.08      
N           81.62       4.75        -17.59      
C           80.39       4.94        -16.85      
C           79.43       6.23        -15.12      
C           80.5        5.99        -15.92      
C           85.36       7.05        -15.37      
O           83.65       5.74        -17.55      
O           80.94       8.85        -14.28      
C           81.93       3.62        -18.37      
C           82.89       10.39       -12.94      
H           83.62       10.3        -12.17      
H           82.99883    11.34046    -13.46239   
H           81.88       10.39       -12.6       
H           81.39       2.81        -17.83      
H           81.50108    3.67004     -19.37081   
H           82.96       3.44        -18.4       
H           77.6        5.39        -14.48      
H           79.48       6.85        -14.25      
H           85.3        6.2         -16.0       
H           87.57       7.12        -15.27      
C           78.32       5.35        -15.27      
N           79.36       4.17        -17.15      
C           78.35       4.38        -16.29      
C           89.48       11.05       -12.88      
C           90.02       10.24       -13.92      
S           87.81       10.56       -12.57      
H           89.32       8.63        -15.26      
H           90.99       10.4        -14.3       
C           89.01       9.33        -14.48      
C           87.81       9.33        -13.8       
C           95.76       19.03       -8.11       
N           94.66       18.6        -7.49       
C           95.99       18.72       -9.41       
C           93.88       17.67       -8.08       
C           94.02       17.18       -9.38       
C           92.92       16.2        -9.66       
C           92.16       16.17       -8.34       
N           92.73       17.13       -7.51       
C           92.62       15.3        -10.66      
C           93.27       15.4        -12.04      
N           92.98       14.25       -12.78      
C           91.94       13.63       -12.15      
C           90.57       13.64       -10.27      
C           91.6        14.27       -10.92      
C           95.12       17.75       -10.04      
O           94.08       16.27       -12.36      
O           91.15       15.54       -7.99       
C           93.88       13.69       -13.81      
C           92.26       17.23       -6.16       
H           91.16       17.07       -6.23       
H           92.74202    16.60827    -5.40554    
H           92.38       18.28       -5.9        
H           93.41       13.12       -14.54      
H           94.65407    13.04494    -13.39429   
H           94.24       14.51       -14.4       
H           88.95       12.44       -10.41      
H           90.23       13.86       -9.27       
H           95.28       17.42       -11.07      
H           96.87       19.14       -9.93       
C           89.83       12.73       -10.96      
N           91.43       12.52       -12.65      
C           90.2        12.15       -12.19      
C           97.24       21.83       -5.81       
C           98.31       21.46       -6.64       
S           95.8        20.91       -6.12       
H           98.64       19.89       -8.25       
H           99.33       21.89       -6.57       
C           97.89       20.35       -7.55       
C           96.56       19.98       -7.39       
C           97.87       30.14       1.32        
N           96.67       29.63       1.11        
C           99.0        29.82       0.62        
C           96.66       28.65       0.22        
C           97.76       28.07       -0.47       
C           97.25       26.95       -1.22       
C           95.76       26.89       -0.93       
N           95.5        27.88       -0.05       
C           97.75       26.09       -2.18       
C           99.15       26.22       -2.67       
N           99.41       25.23       -3.56       
C           98.31       24.47       -3.79       
C           96.2        24.08       -3.04       
C           97.29       24.9        -2.96       
C           98.99       28.65       -0.19       
O           99.98       27.09       -2.46       
O           94.89       26.28       -1.47       
C           100.76      24.79       -3.61       
C           94.19       28.28       0.23        
H           93.68       28.13       -0.72       
H           93.78773    27.5672     0.94986     
H           94.2        29.31       0.46        
H           100.87      23.7        -3.5        
H           101.2068    25.03113    -4.57453    
H           101.36      25.25       -2.85       
H           95.29       22.39       -3.92       
H           95.38       24.21       -2.38       
H           99.86       28.26       -0.61       
H           99.96       30.3        0.84        
C           96.17       22.98       -3.88       
N           98.29       23.49       -4.63       
C           97.21       22.77       -4.76       
C           98.42       33.55       3.18        
C           97.13       33.15       3.42        
S           99.21       32.45       2.11        
H           95.81       31.39       2.83        
H           96.5        33.65       4.06        
C           96.79       31.85       2.74        
C           97.79       31.36       2.09        
C           104.69      40.46       9.29        
N           103.35      40.29       9.49        
C           105.31      39.71       8.24        
C           102.75      39.43       8.8         
C           103.26      38.69       7.62        
C           102.14      37.93       7.01        
C           100.97      38.35       7.9         
N           101.41      39.22       8.87        
C           101.99      37.09       5.97        
C           103.05      36.89       4.87        
N           102.64      35.86       4.05        
C           101.26      35.59       4.28        
C           99.57       35.79       5.95        
C           100.92      36.16       5.5         
C           104.59      38.8        7.45        
O           104.2       37.33       4.8         
O           99.78       38.1        7.73        
C           103.3       35.66       2.77        
C           100.62      39.53       10.06       
H           99.58       39.28       9.84        
H           101.00329   39.02604    10.94725    
H           100.54      40.59       10.06       
H           102.72      35.75       1.85        
H           103.84201   34.71495    2.80474     
H           104.12      36.36       2.6         
H           97.79       34.63       5.65        
H           99.26       36.07       6.95        
H           105.11      38.24       6.69        
H           106.36      39.85       8.08        
C           98.72       34.98       5.18        
N           100.46      34.77       3.53        
C           99.19       34.48       3.97        
C           106.77      43.25       10.97       
C           105.51      43.19       11.61       
S           107.03      41.95       9.8         
H           103.62      42.07       11.27       
H           105.2       43.8        12.44       
C           104.73      42.19       11.03       
C           105.35      41.48       10.1        
C           115.8       49.5        12.26       
N           114.62      50.01       12.53       
C           115.82      48.39       11.48       
C           113.56      49.28       12.27       
C           113.49      47.97       11.61       
C           112.08      47.48       11.7        
C           111.28      48.62       12.26       
N           112.21      49.63       12.59       
C           111.36      46.37       11.18       
C           111.88      45.44       10.1        
N           110.92      44.64       9.61        
C           109.87      44.7        10.49       
C           108.9       45.97       12.29       
C           110.03      45.8        11.42       
C           114.72      47.65       11.18       
O           113.0       45.51       9.61        
O           110.08      48.75       12.45       
C           111.26      43.57       8.68        
C           111.88      50.93       13.02       
H           112.83      51.3        13.5        
H           111.56159   51.5599     12.18937    
H           111.07      50.78       13.71       
H           110.28      43.14       8.38        
H           111.93706   42.82091    9.09056     
H           111.59      44.08       7.77        
H           106.93      45.32       12.75       
H           108.83      46.89       12.96       
H           114.83      46.7        10.64       
H           116.75      47.88       11.18       
C           107.8       45.19       12.14       
N           108.91      43.88       10.41       
C           107.84      44.22       11.19       
C           119.36      50.93       13.05       
C           118.43      51.88       13.25       
S           118.59      49.55       12.36       
H           116.22      52.22       13.16       
H           118.68      52.9        13.61       
C           117.1       51.53       12.94       
C           117.0       50.27       12.48       
C           129.94      50.32       16.6        
N           128.96      50.95       17.28       
C           129.73      49.73       15.37       
C           127.74      50.94       16.77       
C           127.34      50.33       15.54       
C           125.92      50.75       15.33       
C           125.63      51.42       16.7        
N           126.73      51.6        17.44       
C           124.92      50.56       14.37       
C           125.16      49.84       13.04       
N           123.98      49.68       12.32       
C           122.93      50.2        13.1        
C           122.44      51.47       15.04       
C           123.46      50.89       14.29       
C           128.39      49.55       14.92       
O           126.14      49.23       12.7        
O           124.6       51.91       17.1        
C           123.88      49.45       10.86       
C           126.96      52.51       18.61       
H           127.82      53.08       18.41       
H           127.067     52.03921    19.58725    
H           126.1       53.12       18.69       
H           124.66      50.07       10.43       
H           124.06724   48.3914     10.67997    
H           122.91      49.83       10.58       
H           120.38      52.04       15.27       
H           122.63      51.93       15.99       
H           128.1       49.05       14.02       
H           130.53      49.26       14.82       
C           121.07      51.5        14.6        
N           121.68      50.23       12.68       
C           120.75      50.91       13.42       
C           133.25      51.78       18.01       
C           133.58      50.81       17.1        
S           131.56      51.85       18.34       
H           132.58      49.5        15.84       
H           134.57      50.42       16.81       
C           132.45      50.19       16.58       
C           131.28      50.62       17.07       
C           139.6       59.46       22.72       
N           140.03      58.59       21.82       
C           138.23      59.52       23.01       
C           139.17      57.88       21.24       
C           137.79      57.78       21.47       
C           137.2       56.72       20.63       
C           138.47      56.07       20.07       
N           139.57      56.93       20.34       
C           135.97      56.17       20.49       
C           134.6       56.54       21.13       
N           133.65      55.66       20.79       
C           134.16      54.75       19.9        
C           135.96      54.39       18.45       
C           135.47      55.14       19.51       
C           137.33      58.68       22.39       
O           134.39      57.44       21.88       
O           138.53      55.07       19.36       
C           132.39      55.54       21.6        
C           140.94      56.73       19.83       
H           141.21      55.69       19.89       
H           141.05321   57.11917    18.81816    
H           141.59      57.24       20.56       
H           132.06      54.48       21.62       
H           131.61238   56.19744    21.21119    
H           132.74      55.79       22.64       
H           135.68      52.77       17.05       
H           136.89      54.69       17.97       
H           136.22      58.72       22.67       
H           137.81      60.31       23.64       
C           135.28      53.26       17.97       
N           133.49      53.71       19.44       
C           134.09      52.9        18.55       
C           141.87      62.08       24.42       
C           142.64      61.51       23.45       
S           140.26      61.53       24.36       
H           142.38      59.85       22.12       
H           143.7       61.53       23.38       
C           141.9       60.43       22.85       
C           140.6       60.44       23.16       
H           39.33       9.23        0.32        
H           142.35      62.63       25.29       
