392

C           49.45       40.95       24.7        
N           48.26       41.01       25.25       
C           49.74       40.39       23.51       
C           47.37       40.33       24.54       
C           47.5        39.67       23.28       
C           46.16       39.27       22.88       
C           45.35       39.56       24.15       
N           46.1        40.26       25.03       
C           45.54       38.71       21.76       
C           46.3        38.23       20.52       
N           45.42       37.86       19.6        
C           44.12       37.94       20.08       
C           42.76       38.7        21.74       
C           44.07       38.51       21.34       
C           48.8        39.7        22.78       
O           47.5        38.12       20.32       
O           44.19       39.27       24.41       
C           45.65       37.59       18.25       
C           45.52       41.02       26.09       
H           46.06       40.9        27.02       
H           45.49206    42.08185    25.84549    
H           44.44       40.7        26.11       
H           44.97       38.17       17.65       
H           45.50607    36.53931    17.99812    
H           46.65       37.83       18.04       
H           40.59       38.39       21.35       
H           42.62       39.07       22.69       
H           49.07       39.31       21.81       
H           50.72       40.34       23.15       
C           41.59       38.24       20.95       
N           43.07       37.55       19.28       
C           41.77       37.63       19.78       
C           52.58       42.39       26.49       
C           51.51       43.17       26.75       
S           52.1        41.18       25.37       
H           49.34       43.2        26.59       
H           51.65       44.07       27.35       
C           50.27       42.73       26.27       
C           50.45       41.68       25.41       
C           63.54       40.63       28.49       
N           62.78       41.37       29.29       
C           62.88       39.86       27.5        
C           61.5        41.56       29.02       
C           60.7        40.99       27.97       
C           59.34       41.56       27.98       
C           59.46       42.32       29.29       
N           60.7        42.39       29.79       
C           58.12       41.38       27.31       
C           57.97       40.17       26.37       
N           56.62       40.14       26.0        
C           55.94       41.2        26.52       
C           55.98       42.92       28.12       
C           56.73       41.96       27.36       
C           61.49       40.07       27.19       
O           58.68       39.25       25.94       
O           58.55       42.88       29.91       
C           55.99       39.13       25.26       
C           61.03       43.06       31.06       
H           61.75       42.43       31.62       
H           61.3596     44.08464    30.88803    
H           60.14       43.19       31.68       
H           55.45       39.61       24.41       
H           55.40686    38.45441    25.88581    
H           56.76       38.57       24.73       
H           54.18       44.07       28.37       
H           56.38       43.4        28.94       
H           61.05       39.52       26.37       
H           63.42       39.3        26.79       
C           54.62       43.26       27.81       
N           54.58       41.31       26.4        
C           53.93       42.35       26.97       
C           67.28       41.71       28.26       
C           67.16       40.51       27.67       
S           65.76       42.19       29.01       
H           65.5        39.13       27.16       
H           68.0        40.12       27.07       
C           65.87       39.93       27.77       
C           64.98       40.74       28.44       
C           75.73       48.55       25.63       
N           74.97       48.86       26.69       
C           75.37       47.45       24.88       
C           74.02       48.01       27.01       
C           73.56       46.85       26.33       
C           72.42       46.25       27.09       
C           72.18       47.31       28.19       
N           73.19       48.19       28.15       
C           71.74       45.07       26.96       
C           72.13       44.03       25.96       
N           71.25       42.96       26.05       
C           70.29       43.22       27.04       
C           69.59       44.74       28.66       
C           70.54       44.48       27.62       
C           74.25       46.65       25.14       
O           73.07       43.99       25.12       
O           71.45       47.29       29.12       
C           71.55       41.66       25.5        
C           73.59       49.01       29.26       
H           74.64       48.89       29.33       
H           73.36794    50.07017    29.13822    
H           73.11       48.7        30.22       
H           71.04       40.99       26.14       
H           71.08943    41.41532    24.54287    
H           72.65       41.41       25.49       
H           67.75       44.07       29.7        
H           69.54       45.66       29.19       
H           74.05       45.97       24.42       
H           75.95       47.13       24.07       
C           68.58       43.76       29.01       
N           69.32       42.29       27.32       
C           68.41       42.64       28.2        
C           79.13       50.5        25.61       
C           79.0        49.82       24.44       
S           77.6        50.3        26.56       
H           77.62       48.52       23.44       
H           79.8        49.76       23.73       
C           77.75       49.22       24.22       
C           76.86       49.38       25.31       
C           88.36       55.51       29.11       
N           87.14       56.11       29.34       
C           88.43       54.25       28.57       
C           86.02       55.42       28.96       
C           85.98       54.1        28.4        
C           84.56       53.79       28.04       
C           83.87       55.0        28.57       
N           84.77       55.87       29.13       
C           84.0        52.69       27.47       
C           84.74       51.4        27.06       
N           83.8        50.57       26.4        
C           82.52       51.12       26.49       
C           81.24       52.93       27.31       
C           82.54       52.39       27.17       
C           87.28       53.6        28.16       
O           85.89       51.17       27.11       
O           82.64       55.22       28.62       
C           84.12       49.27       26.07       
C           84.47       57.11       29.81       
H           85.11       57.29       30.64       
H           84.47701    57.95078    29.11636    
H           83.48       56.99       30.23       
H           83.23       48.63       25.99       
H           84.67618    49.16572    25.1384     
H           84.79       48.94       26.87       
H           79.14       52.73       27.02       
H           81.1        53.91       27.81       
H           87.43       52.73       27.6        
H           89.39       53.76       28.35       
C           80.11       52.3        26.84       
N           81.49       50.51       25.88       
C           80.27       51.12       26.15       
C           90.99       57.9        30.75       
C           91.65       56.71       30.39       
S           89.31       57.78       30.38       
H           91.18       54.81       29.36       
H           92.77       56.61       30.48       
C           90.81       55.79       29.71       
C           89.54       56.18       29.66       
C           95.93       67.2        34.14       
N           94.6        67.19       33.98       
C           96.65       66.01       34.2        
C           94.07       66.01       33.7        
C           94.68       64.74       33.54       
C           93.62       63.74       33.1        
C           92.33       64.54       33.21       
N           92.7        65.88       33.55       
C           93.68       62.42       32.63       
C           94.98       61.6        32.56       
N           94.68       60.36       32.13       
C           93.32       60.21       32.01       
C           91.19       61.33       32.18       
C           92.63       61.44       32.3        
C           96.06       64.82       33.81       
O           96.13       61.98       32.67       
O           91.17       64.31       32.97       
C           95.66       59.3        31.78       
C           91.71       66.89       33.88       
H           92.07       67.75       34.51       
H           91.10347    67.13975    33.00945    
H           91.02       66.23       34.53       
H           95.54       58.74       30.86       
H           95.6814     58.5438     32.56473    
H           96.63       59.79       31.72       
H           89.5        60.08       31.63       
H           90.49       62.17       32.3        
H           96.67       63.99       33.72       
H           97.72       66.05       34.33       
C           90.65       60.12       31.7        
N           92.81       59.08       31.59       
C           91.45       59.13       31.34       
C           96.54       70.93       35.04       
C           97.74       70.36       34.76       
S           95.32       69.7        35.03       
H           98.48       68.31       34.33       
H           98.71       70.94       34.69       
C           97.68       68.99       34.53       
C           96.4        68.57       34.43       
C           94.48       80.21       40.57       
N           93.47       79.59       39.94       
C           95.85       79.88       40.25       
C           93.86       78.76       38.96       
C           95.18       78.31       38.66       
C           95.03       77.16       37.76       
C           93.48       77.07       37.52       
N           92.86       78.05       38.25       
C           95.91       76.18       37.28       
C           97.4        76.31       37.4        
N           97.95       75.19       36.8        
C           97.02       74.31       36.36       
C           94.72       74.05       36.22       
C           95.75       74.93       36.56       
C           96.25       78.92       39.32       
O           98.03       77.2        37.87       
O           92.9        76.16       36.94       
C           99.43       74.94       36.76       
C           91.51       78.38       38.27       
H           91.16       78.71       39.22       
H           91.29658    79.18215    37.56352    
H           90.99       77.44       37.95       
H           99.65       73.91       36.44       
H           99.90418    75.52195    35.96969    
H           99.84       75.13       37.75       
H           94.12       72.18       35.42       
H           93.69       74.2        36.4        
H           97.26       78.6        39.16       
H           96.65       80.28       40.9        
C           94.99       72.8        35.59       
N           97.29       73.16       35.84       
C           96.26       72.35       35.42       
C           94.14       82.55       43.72       
C           92.92       82.58       43.14       
S           95.27       81.55       42.88       
H           92.04       81.76       41.28       
H           92.0        82.93       43.64       
C           92.92       81.91       41.87       
C           94.09       81.17       41.63       
C           98.21       87.77       52.51       
N           97.02       88.16       52.03       
C           98.9        86.65       52.06       
C           96.55       87.5        50.97       
C           97.21       86.49       50.26       
C           96.33       86.09       49.11       
C           95.21       87.05       49.23       
N           95.4        87.88       50.34       
C           96.43       85.21       48.06       
C           97.82       84.77       47.64       
N           97.69       83.93       46.55       
C           96.34       83.86       46.16       
C           94.22       84.42       46.97       
C           95.54       84.58       47.1        
C           98.46       86.0        50.88       
O           98.89       85.11       48.18       
O           94.19       87.08       48.49       
C           98.82       83.1        46.09       
C           94.25       88.55       50.88       
H           93.52       88.65       50.21       
H           93.83985    88.05781    51.76183    
H           94.5        89.58       51.1        
H           98.86       83.16       45.02       
H           98.77688    82.07961    46.47085    
H           99.71       83.64       46.3        
H           92.67       83.58       45.81       
H           93.48       84.9        47.66       
H           98.99       85.15       50.51       
H           99.8        86.35       52.58       
C           93.77       83.6        45.93       
N           95.98       83.19       45.16       
C           94.6        83.09       45.0        
C           100.61      89.79       54.82       
C           99.47       90.58       54.58       
S           100.48      88.3        53.98       
H           97.67       90.43       53.29       
H           99.42       91.6        54.85       
C           98.49       89.95       53.79       
C           98.89       88.7        53.43       
C           111.35      91.59       56.6        
N           110.57      92.59       56.89       
C           110.94      90.39       56.17       
C           109.3       92.35       56.73       
C           108.69      91.16       56.36       
C           107.21      91.33       56.36       
C           107.07      92.85       56.63       
N           108.33      93.35       56.85       
C           106.1       90.49       56.05       
C           106.18      88.96       56.02       
N           104.94      88.42       55.85       
C           104.01      89.43       55.6        
C           103.65      91.78       55.73       
C           104.61      90.73       55.85       
C           109.59      90.11       56.09       
O           107.07      88.24       56.33       
O           106.04      93.49       56.76       
C           104.62      86.99       56.09       
C           108.48      94.73       57.35       
H           109.3       94.87       58.0        
H           108.60113   95.4924     56.58047    
H           107.61      94.86       57.98       
H           103.97      86.65       55.27       
H           104.23354   86.84687    57.09909    
H           105.47      86.42       56.0        
H           101.66      92.26       55.35       
H           103.85      92.81       55.73       
H           109.26      89.11       55.79       
H           111.72      89.64       55.93       
C           102.38      91.45       55.46       
N           102.77      89.16       55.29       
C           101.96      90.18       55.24       
C           115.19      92.29       56.03       
C           114.65      93.39       56.65       
S           114.01      91.09       55.77       
H           112.63      93.93       57.45       
H           115.27      94.24       56.91       
C           113.26      93.2        56.94       
C           112.76      92.02       56.54       
C           125.27      91.32       51.57       
N           124.85      92.46       52.18       
C           124.45      90.27       51.41       
C           123.59      92.52       52.59       
C           122.66      91.44       52.62       
C           121.37      91.93       53.19       
C           121.71      93.45       53.38       
N           123.04      93.69       53.04       
C           120.18      91.29       53.57       
C           119.79      89.89       53.29       
N           118.42      89.77       53.59       
C           118.02      90.82       54.46       
C           118.9       92.78       55.34       
C           119.13      91.7        54.48       
C           123.13      90.3        51.94       
O           120.36      89.0        52.65       
O           120.99      94.32       53.71       
C           117.59      88.68       53.18       
C           123.85      94.8        53.54       
H           124.77      94.93       52.95       
H           124.10868   94.65957    54.58951    
H           123.35      95.77       53.4        
H           117.99      88.1        52.36       
H           117.39025   87.99809    54.00656    
H           116.67      89.09       52.79       
H           117.51      93.91       56.5        
H           119.77      93.35       55.58       
H           122.69      89.36       51.93       
H           124.86      89.28       51.2        
C           117.62      93.01       55.89       
N           116.84      91.04       54.89       
C           116.62      92.13       55.61       
C           129.12      91.6        51.32       
C           128.75      90.58       50.47       
S           127.76      92.23       52.15       
H           126.91      89.59       49.76       
H           129.44      89.95       49.8        
C           127.34      90.46       50.37       
C           126.64      91.21       51.28       
C           138.77      94.22       56.49       
N           138.64      93.22       55.58       
C           137.62      94.97       56.76       
C           137.49      93.01       54.93       
C           136.28      93.67       55.17       
C           135.3       92.99       54.26       
C           136.18      91.96       53.57       
N           137.33      91.89       54.17       
C           133.93      93.11       53.98       
C           133.03      93.78       54.96       
N           131.8       93.79       54.55       
C           131.69      93.01       53.39       
C           132.84      91.5        52.02       
C           132.93      92.47       53.07       
C           136.38      94.76       56.05       
O           133.28      94.34       55.99       
O           135.91      91.19       52.61       
C           130.72      94.33       55.34       
C           138.2       90.72       54.16       
H           137.67      89.84       53.76       
H           139.05154   90.81225    53.48586    
H           138.51      90.35       55.16       
H           129.89      93.71       55.32       
H           130.50918   95.39138    55.20914    
H           130.99      94.13       56.38       
H           131.63      90.51       50.6        
H           133.78      91.08       51.67       
H           135.52      95.27       56.31       
H           137.6       95.76       57.54       
C           131.63      91.33       51.32       
N           130.48      92.75       52.86       
C           130.45      91.89       51.84       
C           141.84      94.62       58.85       
C           142.24      93.86       57.82       
S           140.13      95.05       58.76       
H           141.34      93.06       55.97       
H           143.24      93.5        57.6        
C           141.18      93.6        56.91       
C           140.04      94.29       57.21       
H           40.85       37.41       19.19       
H           142.55      94.9        59.66       
