392

C           50.84       12.31       39.47       
N           51.75       12.69       40.43       
C           49.5        12.54       39.51       
C           51.21       13.51       41.38       
C           49.82       13.92       41.5        
C           49.78       14.81       42.7        
C           51.2        14.67       43.31       
N           51.97       13.92       42.45       
C           48.8        15.57       43.33       
C           47.52       16.01       42.63       
N           46.79       16.79       43.43       
C           47.45       16.99       44.62       
C           49.46       16.59       45.83       
C           48.72       16.31       44.61       
C           49.0        13.42       40.51       
O           47.24       15.64       41.48       
O           51.71       15.08       44.33       
C           45.57       17.47       43.13       
C           53.18       13.3        42.91       
H           53.25       12.28       42.57       
H           54.07518    13.82527    42.57708    
H           53.15       13.25       44.0        
H           45.65       18.49       43.38       
H           44.71326    16.93004    43.53317    
H           45.44       17.48       42.0        
H           49.63       17.82       47.53       
H           50.39       16.18       46.03       
H           47.92       13.59       40.62       
H           48.78       12.13       38.76       
C           48.98       17.5        46.79       
N           46.97       17.71       45.61       
C           47.73       17.98       46.66       
C           52.65       9.7         37.16       
C           51.38       9.85        36.7        
S           52.9        10.84       38.49       
H           49.58       11.01       37.17       
H           50.97       9.25        35.85       
C           50.61       10.77       37.47       
C           51.29       11.33       38.51       
C           60.48       3.07        32.96       
N           60.68       3.95        33.97       
C           59.24       3.04        32.3        
C           59.8        4.86        34.21       
C           58.42       4.77        33.8        
C           57.7        5.86        34.5        
C           58.81       6.55        35.26       
N           60.01       5.92        35.06       
C           56.36       6.32        34.56       
C           55.44       6.11        33.38       
N           54.26       6.74        33.74       
C           54.38       7.37        35.0        
C           55.96       8.06        36.58       
C           55.7        7.25        35.51       
C           58.18       3.8         32.83       
O           55.73       5.56        32.35       
O           58.8        7.51        35.96       
C           53.1        6.65        32.9        
C           61.26       6.46        35.46       
H           61.24       7.59        35.62       
H           61.66983    6.1491      36.42098    
H           61.95       6.21        34.63       
H           52.58       7.59        32.85       
H           52.35756    5.90756     33.19269    
H           53.43       6.41        31.91       
H           55.24       9.45        38.07       
H           56.94       8.04        37.03       
H           57.2        3.78        32.38       
H           59.13       2.31        31.53       
C           54.97       8.86        37.16       
N           53.44       8.2         35.47       
C           53.73       8.87        36.6        
C           64.03       1.66        32.06       
C           63.13       0.87        31.36       
S           63.24       2.93        33.06       
H           60.99       0.73        31.22       
H           63.46       0.04        30.74       
C           61.83       1.23        31.66       
C           61.71       2.33        32.54       
C           74.84       -0.81       33.3        
N           74.39       0.51        33.49       
C           73.85       -1.73       32.92       
C           73.1        0.84        33.43       
C           72.11       -0.12       33.01       
C           70.82       0.61        32.97       
C           71.25       2.03        33.32       
N           72.59       2.09        33.55       
C           69.52       0.33        32.6        
C           69.22       -0.97       31.82       
N           67.85       -1.08       31.59       
C           67.25       0.07        32.06       
C           67.63       2.2         33.22       
C           68.21       0.95        32.7        
C           72.55       -1.42       32.73       
O           70.03       -1.76       31.33       
O           70.63       3.09        33.32       
C           67.25       -1.99       30.65       
C           73.34       3.26        33.7        
H           72.97       4.22        33.32       
H           73.47242    3.53877     34.7454     
H           74.27       3.1         33.27       
H           66.19       -1.96       30.71       
H           67.54565    -1.69435    29.64338    
H           67.61       -2.98       30.85       
H           65.85       3.33        33.36       
H           68.19       2.94        33.77       
H           71.98       -2.22       32.3        
H           74.19       -2.78       32.65       
C           66.27       2.42        32.92       
N           65.99       0.32        31.8        
C           65.45       1.51        32.22       
C           78.58       -0.85       34.27       
C           78.13       -2.13       34.27       
S           77.26       0.27        33.99       
H           76.3        -3.26       33.44       
H           78.84       -3.02       34.47       
C           76.8        -2.29       33.85       
C           76.21       -1.09       33.59       
C           87.96       3.16        38.2        
N           87.69       3.39        36.89       
C           87.28       2.11        38.9        
C           86.71       2.66        36.37       
C           85.98       1.56        36.94       
C           84.93       1.19        35.95       
C           85.19       2.11        34.77       
N           86.3        2.9         35.09       
C           83.83       0.3         36.05       
C           83.55       -0.73       37.17       
N           82.32       -1.22       37.01       
C           81.68       -0.63       35.92       
C           81.92       0.91        34.17       
C           82.57       0.3         35.27       
C           86.33       1.32        38.29       
O           84.15       -0.97       38.21       
O           84.61       2.25        33.72       
C           81.69       -2.13       37.96       
C           86.92       3.9         34.18       
H           87.66       4.47        34.68       
H           87.45554    3.51644     33.31156    
H           86.17       4.61        33.89       
H           80.7        -1.68       38.34       
H           81.47936    -3.11298    37.53872    
H           82.43       -2.33       38.81       
H           80.03       1.13        33.14       
H           82.33       1.69        33.61       
H           85.72       0.71        38.92       
H           87.49       1.85        39.93       
C           80.54       0.62        33.92       
N           80.47       -1.03       35.59       
C           79.92       -0.41       34.55       
C           89.5        6.5         39.54       
C           89.65       5.58        40.55       
S           88.75       5.81        38.17       
H           89.01       3.46        40.8        
H           90.32       5.73        41.46       
C           89.09       4.32        40.15       
C           88.64       4.29        38.92       
C           91.58       17.41       39.01       
N           91.8        16.72       40.14       
C           91.02       16.73       37.9        
C           91.58       15.4        40.11       
C           91.19       14.62       38.97       
C           91.15       13.19       39.41       
C           91.86       13.24       40.8        
N           92.02       14.56       41.13       
C           90.7        12.01       38.89       
C           90.18       11.88       37.42       
N           90.13       10.52       37.14       
C           90.14       9.8         38.33       
C           90.58       9.96        40.61       
C           90.52       10.64       39.43       
C           90.84       15.33       37.89       
O           89.99       12.74       36.61       
O           92.16       12.39       41.59       
C           89.82       9.98        35.83       
C           92.65       14.93       42.39       
H           92.56       14.16       43.15       
H           93.70361    15.20213    42.3272     
H           92.12       15.86       42.73       
H           88.84       9.43        35.86       
H           90.59655    9.34134     35.40907    
H           89.77       10.8        35.08       
H           90.13       8.16        41.7        
H           90.69       10.5        41.57       
H           90.55       14.85       36.97       
H           90.74       17.24       36.95       
C           90.27       8.56        40.71       
N           89.86       8.53        38.39       
C           89.92       7.91        39.56       
C           91.66       21.13       40.08       
C           91.65       21.15       38.74       
S           91.64       19.46       40.72       
H           91.38       19.57       37.11       
H           91.56       22.03       38.1        
C           91.59       19.79       38.15       
C           91.74       18.78       39.11       
C           93.37       29.99       46.52       
N           92.61       29.02       46.95       
C           93.74       29.93       45.18       
C           92.13       28.05       46.14       
C           92.31       27.97       44.73       
C           91.77       26.66       44.25       
C           91.01       26.18       45.4        
N           91.18       27.08       46.46       
C           91.87       26.03       42.99       
C           92.22       26.73       41.71       
N           92.37       25.74       40.75       
C           91.9        24.52       41.16       
C           91.25       23.33       43.1        
C           91.61       24.58       42.54       
C           93.22       28.99       44.32       
O           92.48       27.85       41.43       
O           90.18       25.28       45.5        
C           92.65       26.11       39.43       
C           90.73       26.81       47.83       
H           91.63       26.69       48.4        
H           89.97594    27.52217    48.16514    
H           90.42       25.77       47.92       
H           93.32       25.39       39.01       
H           91.74429    26.32063    38.8613     
H           93.22       27.07       39.47       
H           90.93       21.2        42.77       
H           90.84       23.38       44.12       
H           93.71       28.89       43.38       
H           94.6        30.53       44.9        
C           91.3        22.18       42.32       
N           92.1        23.44       40.44       
C           91.69       22.25       40.97       
C           94.58       32.96       48.67       
C           94.39       31.93       49.53       
S           94.1        32.61       47.07       
H           93.71       29.84       49.44       
H           94.57       32.12       50.59       
C           93.89       30.77       48.91       
C           93.83       30.96       47.52       
C           98.86       42.83       50.92       
N           98.01       42.36       51.82       
C           99.06       42.27       49.72       
C           97.39       41.2        51.51       
C           97.51       40.5        50.31       
C           96.69       39.23       50.43       
C           96.14       39.36       51.88       
N           96.6        40.54       52.43       
C           96.47       38.23       49.46       
C           96.73       38.37       47.98       
N           96.53       37.13       47.42       
C           95.84       36.26       48.27       
C           95.11       36.15       50.52       
C           95.75       36.95       49.53       
C           98.32       41.14       49.36       
O           97.15       39.32       47.3        
O           95.36       38.62       52.36       
C           96.75       36.9        46.0        
C           96.0        41.16       53.56       
H           95.04       40.68       53.68       
H           96.64996    40.94091    54.40714    
H           95.85       42.22       53.33       
H           96.0        36.19       45.69       
H           97.66503    36.3567     45.76409    
H           96.56       37.87       45.52       
H           94.03       34.32       50.95       
H           95.03       36.5        51.53       
H           98.53       40.55       48.44       
H           99.86       42.63       49.0        
C           94.62       34.88       50.19       
N           95.54       34.95       48.04       
C           94.91       34.26       48.99       
C           101.69      45.5        51.78       
C           100.89      45.39       52.83       
S           101.06      44.53       50.42       
H           99.23       44.1        53.57       
H           101.05      46.02       53.67       
C           99.95       44.31       52.76       
C           99.78       43.83       51.47       
C           108.4       53.44       47.98       
N           107.13      53.75       48.35       
C           108.95      52.15       48.12       
C           106.38      52.78       48.76       
C           106.72      51.42       48.9        
C           105.54      50.72       49.28       
C           104.41      51.7        49.27       
N           105.0       52.89       48.97       
C           105.25      49.33       49.73       
C           106.14      48.17       49.32       
N           105.66      47.0        49.83       
C           104.45      47.26       50.45       
C           103.06      48.99       51.22       
C           104.15      48.65       50.5        
C           108.11      51.13       48.6        
O           107.12      48.23       48.5        
O           103.23      51.62       49.47       
C           106.3       45.7        49.87       
C           104.33      54.11       48.92       
H           103.37      53.94       48.56       
H           104.30845   54.56258    49.91137    
H           104.77      54.66       48.07       
H           105.57      44.86       50.1        
H           107.13985   45.77829    50.56038    
H           106.79      45.61       48.93       
H           101.29      48.26       52.07       
H           102.78      50.01       51.23       
H           108.49      50.16       48.69       
H           110.01      51.89       47.84       
C           102.24      48.0        51.65       
N           103.64      46.27       50.86       
C           102.52      46.66       51.46       
C           111.29      56.2        47.29       
C           110.07      56.76       47.26       
S           111.03      54.46       47.47       
H           107.97      56.22       47.62       
H           110.02      57.85       47.17       
C           108.98      55.9        47.56       
C           109.3       54.63       47.67       
C           122.13      57.97       45.46       
N           121.22      58.89       45.14       
C           121.71      56.86       46.14       
C           119.99      58.75       45.49       
C           119.44      57.66       46.13       
C           117.96      57.8        46.23       
C           117.8       59.13       45.61       
N           119.01      59.62       45.2        
C           116.83      57.04       46.58       
C           116.96      55.59       47.05       
N           115.75      55.04       47.32       
C           114.77      56.03       47.11       
C           114.42      58.27       46.45       
C           115.35      57.24       46.64       
C           120.4       56.67       46.45       
O           118.04      54.99       47.12       
O           116.85      59.77       45.44       
C           115.57      53.83       48.05       
C           119.22      60.95       44.61       
H           119.9       60.82       43.71       
H           119.66732   61.62797    45.33689    
H           118.29      61.34       44.29       
H           116.25      53.12       47.64       
H           115.77989   53.93494    49.11444    
H           114.55      53.44       47.92       
H           112.4       58.83       46.5        
H           114.75      59.23       46.14       
H           120.17      55.73       46.93       
H           122.44      56.13       46.47       
C           113.07      58.0        46.66       
N           113.48      55.76       47.28       
C           112.63      56.74       47.05       
C           125.69      59.23       44.42       
C           125.79      58.45       45.56       
S           124.02      59.35       43.91       
H           124.44      57.06       46.58       
H           126.7       58.28       46.09       
C           124.62      57.71       45.73       
C           123.55      58.25       45.13       
C           132.97      65.39       38.63       
N           133.37      64.59       39.59       
C           131.65      65.57       38.36       
C           132.43      63.95       40.23       
C           131.01      64.06       40.14       
C           130.44      63.09       41.18       
C           131.7       62.59       41.86       
N           132.83      63.12       41.26       
C           129.11      62.74       41.52       
C           127.92      63.48       40.93       
N           126.77      62.82       41.44       
C           127.13      61.77       42.25       
C           128.88      60.66       43.22       
C           128.54      61.61       42.29       
C           130.63      64.9        39.09       
O           127.86      64.59       40.46       
O           131.8       61.89       42.91       
C           125.45      63.12       40.95       
C           134.17      62.79       41.64       
H           134.29      62.71       42.73       
H           134.53721   61.8893     41.14808    
H           134.86      63.63       41.43       
H           124.7       62.88       41.68       
H           125.20572   62.68727    39.97986    
H           125.46      64.16       40.7        
H           128.37      59.01       44.47       
H           129.88      60.43       43.29       
H           129.59      64.89       38.8        
H           131.36      66.22       37.52       
C           127.97      59.86       43.93       
N           126.21      61.02       42.91       
C           126.6       60.06       43.7        
C           135.54      67.03       36.26       
C           136.18      66.08       36.95       
S           133.83      67.16       36.71       
H           135.63      64.44       38.45       
H           137.18      65.67       36.66       
C           135.37      65.33       37.88       
C           134.09      65.86       37.84       
H           47.31       18.76       47.31       
H           136.1       67.74       35.64       
