392

C           50.85       13.41       28.17       
N           51.48       13.17       29.3        
C           49.77       14.26       28.15       
C           51.23       13.89       30.4        
C           50.25       14.87       30.55       
C           50.4        15.49       31.89       
C           51.59       14.77       32.51       
N           52.0        13.76       31.59       
C           49.7        16.49       32.6        
C           48.78       17.44       31.88       
N           48.36       18.36       32.88       
C           48.77       17.97       34.15       
C           50.13       16.45       35.29       
C           49.59       16.88       34.04       
C           49.48       15.0        29.34       
O           48.44       17.49       30.72       
O           52.04       14.79       33.62       
C           47.41       19.44       32.67       
C           52.7        12.63       32.05       
H           52.31       11.72       31.52       
H           53.77139    12.68033    31.85586    
H           52.5        12.36       33.13       
H           47.78       20.32       33.21       
H           46.39083    19.29645    33.02886    
H           47.44       19.69       31.63       
H           50.11       16.77       37.45       
H           50.73       15.54       35.35       
H           48.56       15.54       29.4        
H           49.17       14.46       27.33       
C           49.74       17.11       36.48       
N           48.42       18.57       35.23       
C           48.93       18.22       36.39       
C           52.99       11.12       25.83       
C           51.89       11.47       25.09       
S           52.9        11.76       27.44       
H           50.0        12.62       25.47       
H           51.77       10.97       24.21       
C           50.91       12.23       25.82       
C           51.4        12.62       27.1        
C           60.06       3.01        23.02       
N           60.22       3.83        24.14       
C           58.88       3.13        22.27       
C           59.32       4.75        24.42       
C           58.15       5.03        23.73       
C           57.53       6.2         24.39       
C           58.43       6.47        25.59       
N           59.45       5.52        25.55       
C           56.48       7.07        24.06       
C           55.83       7.15        22.69       
N           54.88       8.2         22.71       
C           54.79       8.73        24.01       
C           55.89       8.74        26.04       
C           55.78       8.17        24.77       
C           57.9        4.17        22.61       
O           56.17       6.54        21.61       
O           58.53       7.39        26.4        
C           54.31       8.71        21.5        
C           60.57       5.5         26.46       
H           60.84       6.56        26.76       
H           60.32442    4.92938     27.35565    
H           61.38       5.04        25.93       
H           54.49       9.76        21.55       
H           53.27579    8.38341     21.39114    
H           54.95       8.3         20.66       
H           55.02       10.12       27.39       
H           56.57       8.41        26.77       
H           57.02       4.28        21.93       
H           58.76       2.65        21.28       
C           54.95       9.7         26.38       
N           53.89       9.65        24.24       
C           53.97       10.08       25.51       
C           63.15       0.77        22.43       
C           62.07       0.18        21.75       
S           62.69       2.27        23.18       
H           60.05       0.66        21.43       
H           62.17       -0.74       21.14       
C           60.93       0.89        21.97       
C           61.04       1.99        22.73       
C           73.7        -1.32       19.85       
N           73.33       -0.34       20.68       
C           72.78       -2.07       19.18       
C           72.05       -0.19       20.9        
C           70.98       -0.94       20.47       
C           69.77       -0.45       21.17       
C           70.3        0.73        22.02       
N           71.68       0.8         21.79       
C           68.48       -0.78       21.1        
C           67.93       -1.84       20.2        
N           66.55       -1.81       20.25       
C           66.07       -0.73       21.09       
C           66.9        0.88        22.65       
C           67.27       -0.13       21.69       
C           71.41       -1.89       19.49       
O           68.51       -2.65       19.56       
O           69.73       1.57        22.72       
C           65.61       -2.92       19.85       
C           72.4        2.07        22.0        
H           71.63       2.87        21.8        
H           72.88805    2.2279      22.96175    
H           73.06       2.21        21.16       
H           64.89       -2.93       20.68       
H           65.12054    -2.74266    18.89236    
H           66.23       -3.77       19.82       
H           65.37       1.77        23.84       
H           67.58       1.38        23.29       
H           70.67       -2.64       19.13       
H           72.99       -3.02       18.69       
C           65.57       1.11        22.98       
N           64.84       -0.48       21.34       
C           64.55       0.44        22.28       
C           77.62       -1.22       19.75       
C           77.26       -2.12       18.88       
S           76.23       -0.45       20.4        
H           75.45       -3.27       18.34       
H           78.02       -2.68       18.36       
C           75.86       -2.42       18.9        
C           75.16       -1.53       19.64       
C           87.63       3.25        21.28       
N           86.64       3.6         21.98       
C           87.5        2.48        20.13       
C           85.47       3.13        21.67       
C           85.13       2.22        20.64       
C           83.69       1.88        20.78       
C           83.2        2.88        21.85       
N           84.34       3.53        22.36       
C           82.75       1.15        20.06       
C           83.12       0.39        18.84       
N           82.07       -0.29       18.35       
C           80.95       -0.06       19.21       
C           80.34       0.79        21.27       
C           81.39       0.72        20.3        
C           86.27       1.92        19.78       
O           84.23       0.19        18.43       
O           82.07       3.17        22.19       
C           82.03       -0.92       17.05       
C           84.29       4.72        23.14       
H           83.55       5.32        22.7        
H           84.16036    4.53274     24.20594    
H           85.2        5.22        23.0        
H           82.51       -0.28       16.24       
H           82.38076    -1.95036    16.99154    
H           80.99       -0.91       16.75       
H           78.4        0.37        21.89       
H           80.5        1.3         22.16       
H           86.27       1.23        18.91       
H           88.35       2.28        19.5        
C           79.18       0.14        21.14       
N           79.76       -0.68       19.03       
C           78.89       -0.61       20.0        
C           90.42       5.72        22.51       
C           91.01       4.82        21.76       
S           88.76       5.2         22.77       
H           90.56       2.88        20.62       
H           91.98       5.02        21.31       
C           90.23       3.66        21.33       
C           88.91       3.77        21.79       
C           93.92       14.77       27.85       
N           92.61       14.41       27.8        
C           94.83       14.02       27.12       
C           92.31       13.4        27.03       
C           93.19       12.59       26.2        
C           92.32       11.58       25.5        
C           90.95       11.88       26.12       
N           91.03       12.92       27.0        
C           92.52       10.5        24.64       
C           93.91       10.1        24.08       
N           93.91       8.84        23.58       
C           92.55       8.42        23.58       
C           90.32       9.14        24.12       
C           91.7        9.42        24.12       
C           94.56       12.93       26.27       
O           95.01       10.69       24.16       
O           89.86       11.44       25.9        
C           95.08       8.03        23.07       
C           89.92       13.35       27.81       
H           89.02       13.39       27.17       
H           89.85425    12.87515    28.78892    
H           90.05       14.41       27.94       
H           94.83       7.71        22.03       
H           95.27588    7.17394     23.71567    
H           95.87       8.75        22.9        
H           88.91       7.66        23.78       
H           89.56       9.81        24.55       
H           95.34       12.33       25.87       
H           95.9        14.28       27.34       
C           89.94       7.9         23.65       
N           92.17       7.19        23.19       
C           90.86       6.92        23.15       
C           94.34       17.6        30.55       
C           95.58       17.35       30.08       
S           93.17       16.57       29.89       
H           96.46       16.09       28.41       
H           96.49       17.96       30.23       
C           95.6        16.33       29.06       
C           94.32       15.87       28.77       
C           94.93       25.32       38.45       
N           94.22       24.18       38.73       
C           95.41       25.54       37.24       
C           94.09       23.29       37.73       
C           94.61       23.39       36.39       
C           94.22       22.13       35.68       
C           93.32       21.43       36.63       
N           93.29       22.16       37.81       
C           94.51       21.62       34.39       
C           95.56       22.32       33.53       
N           95.75       21.53       32.47       
C           94.88       20.46       32.47       
C           93.08       19.51       33.62       
C           94.04       20.52       33.57       
C           95.34       24.59       36.18       
O           96.36       23.21       33.82       
O           92.73       20.38       36.49       
C           96.75       21.93       31.41       
C           92.47       21.79       39.02       
H           93.08       21.97       39.91       
H           91.53041    22.32386    39.16236    
H           92.31       20.73       39.02       
H           97.39       21.06       31.22       
H           96.2445     22.07952    30.45595    
H           97.41       22.64       31.69       
H           92.07       18.05       32.27       
H           92.45       19.43       34.49       
H           95.74       24.88       35.16       
H           95.99       26.45       37.04       
C           92.95       18.64       32.45       
N           94.8        19.65       31.47       
C           93.88       18.69       31.43       
C           95.37       28.35       40.85       
C           94.74       27.35       41.56       
S           95.77       27.72       39.33       
H           93.89       25.29       41.1        
H           94.39       27.49       42.58       
C           94.44       26.15       40.76       
C           94.97       26.23       39.55       
C           100.6       37.85       42.61       
N           99.82       37.34       43.58       
C           100.64      37.32       41.37       
C           99.21       36.25       43.32       
C           99.21       35.53       42.13       
C           98.38       34.27       42.33       
C           97.74       34.52       43.71       
N           98.39       35.65       44.25       
C           98.01       33.27       41.45       
C           98.22       33.27       39.94       
N           97.66       32.13       39.42       
C           97.23       31.31       40.48       
C           96.73       31.26       42.76       
C           97.3        31.99       41.72       
C           99.97       36.11       41.11       
O           98.48       34.27       39.26       
O           96.96       33.9        44.4        
C           97.18       32.11       38.04       
C           98.34       36.09       45.65       
H           99.33       36.46       45.88       
H           97.53016    36.80376    45.80099    
H           98.11       35.16       46.27       
H           96.11       31.86       37.96       
H           97.66824    31.44687    37.32586    
H           97.32       33.06       37.61       
H           95.4        29.63       43.21       
H           96.79       31.66       43.73       
H           100.13      35.57       40.19       
H           101.42      37.61       40.6        
C           96.05       30.08       42.51       
N           96.62       30.17       40.19       
C           96.03       29.58       41.23       
C           103.19      40.58       43.53       
C           102.22      40.65       44.45       
S           102.85      39.51       42.26       
H           100.42      39.51       44.82       
H           102.32      41.13       45.4        
C           101.24      39.66       44.16       
C           101.43      38.93       42.98       
C           112.34      46.65       41.58       
N           111.24      47.28       42.09       
C           112.36      45.28       41.34       
C           110.18      46.5        42.28       
C           110.02      45.13       42.01       
C           108.72      44.71       42.5        
C           108.1       45.97       43.08       
N           109.01      46.98       42.88       
C           107.94      43.51       42.35       
C           108.33      42.39       41.39       
N           107.44      41.36       41.47       
C           106.41      41.65       42.37       
C           105.66      43.43       43.81       
C           106.68      42.92       42.97       
C           111.19      44.53       41.52       
O           109.23      42.43       40.54       
O           107.11      46.1        43.76       
C           107.5       40.16       40.64       
C           108.63      48.4        43.05       
H           107.53      48.43       42.84       
H           108.99111   48.76111    44.01296    
H           109.03      49.02       42.24       
H           106.44      39.92       40.33       
H           107.88763   39.26015    41.11761    
H           107.94      40.33       39.61       
H           103.9       42.9        44.82       
H           105.77      44.35       44.34       
H           111.23      43.47       41.33       
H           113.27      44.73       41.03       
C           104.62      42.56       44.13       
N           105.29      40.92       42.55       
C           104.41      41.36       43.47       
C           115.52      48.47       40.32       
C           114.68      49.44       40.85       
S           114.93      46.86       40.5        
H           112.69      49.41       41.79       
H           114.97      50.5        40.78       
C           113.53      48.84       41.49       
C           113.5       47.48       41.26       
C           125.04      51.6        35.89       
N           123.89      52.18       35.51       
C           125.11      50.7        36.88       
C           122.8       51.74       36.06       
C           122.69      50.68       37.0        
C           121.26      50.48       37.26       
C           120.61      51.6        36.46       
N           121.59      52.27       35.78       
C           120.51      49.61       38.0        
C           120.97      48.2        38.32       
N           119.89      47.53       38.89       
C           118.79      48.33       39.01       
C           118.08      50.52       38.58       
C           119.13      49.63       38.52       
C           123.93      50.18       37.45       
O           121.99      47.66       37.98       
O           119.44      51.78       36.25       
C           119.89      46.04       39.02       
C           121.39      53.42       34.86       
H           122.08      53.19       34.03       
H           121.49067   54.34037    35.43523    
H           120.38      53.34       34.53       
H           119.32      45.76       39.84       
H           119.64429   45.4854     38.11438    
H           120.88      45.78       39.36       
H           116.06      50.7        39.12       
H           118.12      51.5        38.21       
H           123.87      49.43       38.29       
H           126.1       50.32       37.12       
C           116.91      50.03       39.09       
N           117.72      47.85       39.59       
C           116.75      48.81       39.61       
C           127.52      53.57       33.69       
C           128.28      52.89       34.58       
S           125.83      53.19       33.83       
H           127.95      51.53       36.25       
H           129.33      52.96       34.74       
C           127.46      52.05       35.42       
C           126.11      52.13       35.18       
C           127.57      63.07       27.77       
N           128.12      63.07       28.97       
C           126.95      61.94       27.29       
C           128.15      61.87       29.61       
C           127.51      60.68       29.24       
C           127.75      59.7        30.32       
C           128.48      60.52       31.38       
N           128.6       61.79       30.95       
C           127.37      58.33       30.58       
C           126.25      57.76       29.83       
N           125.89      56.51       30.48       
C           126.89      56.15       31.35       
C           128.67      57.01       32.62       
C           127.74      57.28       31.58       
C           126.87      60.76       28.0        
O           125.52      58.3        28.97       
O           128.82      60.22       32.57       
C           124.48      56.1        30.66       
C           128.73      62.96       31.77       
H           128.44      62.72       32.75       
H           129.69376   63.46615    31.82547    
H           127.91      63.67       31.48       
H           124.31      55.94       31.68       
H           124.19902   55.27762    30.00209    
H           123.9       56.97       30.39       
H           129.34      55.58       33.99       
H           129.45      57.75       32.97       
H           126.5       59.87       27.55       
H           126.55      61.89       26.29       
C           128.65      55.8        33.23       
N           126.79      55.0        32.02       
C           127.79      54.79       32.87       
C           128.18      66.62       26.18       
C           127.22      65.95       25.45       
S           128.55      65.6        27.57       
H           126.2       64.0        25.36       
H           126.83      66.33       24.5        
C           126.93      64.63       25.88       
C           127.58      64.32       27.04       
H           48.22       18.32       37.16       
H           128.97      67.24       25.7        
