392

C           56.08       30.49       0.64        
N           56.97       31.46       1.14        
C           55.2        29.83       1.48        
C           56.79       31.76       2.44        
C           55.83       31.15       3.36        
C           56.09       31.83       4.64        
C           57.21       32.83       4.33        
N           57.59       32.72       3.02        
C           55.54       31.63       5.95        
C           54.27       30.85       6.31        
N           53.97       31.01       7.65        
C           55.04       31.73       8.22        
C           56.98       32.81       7.86        
C           55.94       32.11       7.27        
C           55.06       30.18       2.83        
O           53.49       30.21       5.55        
O           57.81       33.67       5.0         
C           53.03       30.21       8.36        
C           58.97       33.07       2.53        
H           59.35       32.48       1.7         
H           59.07956    34.12447    2.27665     
H           59.62       32.77       3.38        
H           52.81       30.68       9.28        
H           53.34941    29.17537    8.48499     
H           52.08       30.21       7.73        
H           57.74       33.82       9.64        
H           57.81       33.12       7.2         
H           54.31       29.67       3.39        
H           54.55       29.06       1.13        
C           57.03       33.07       9.25        
N           55.0        32.05       9.47        
C           55.96       32.79       10.06       
C           56.75       30.48       -3.2        
C           55.65       29.7        -3.06       
S           57.33       31.2        -1.7        
H           54.5        29.03       -1.27       
H           55.29       29.2        -3.93       
C           55.32       29.62       -1.62       
C           56.06       30.4        -0.85       
C           61.89       29.98       -13.11      
N           62.43       30.6        -12.02      
C           60.71       29.25       -12.95      
C           61.78       30.71       -10.87      
C           60.53       30.09       -10.58      
C           60.06       30.54       -9.23       
C           61.19       31.48       -8.79       
N           62.05       31.57       -9.82       
C           59.0        30.27       -8.37       
C           57.73       29.63       -8.84       
N           56.88       29.52       -7.77       
C           57.4        30.11       -6.68       
C           59.17       31.39       -5.91       
C           58.61       30.68       -7.03       
C           60.02       29.31       -11.68      
O           57.44       29.26       -9.98       
O           61.44       32.16       -7.81       
C           55.7        28.6        -7.74       
C           63.21       32.4        -9.75       
H           63.1        33.16       -9.02       
H           64.14051    31.84024    -9.6555     
H           63.19       32.83       -10.74      
H           54.94       29.05       -7.05       
H           56.03685    27.62454    -7.38912    
H           55.33       28.63       -8.77       
H           58.94       31.97       -3.78       
H           60.05       31.93       -6.06       
H           59.07       28.89       -11.65      
H           60.22       28.7        -13.69      
C           58.56       31.47       -4.66       
N           56.74       30.24       -5.5        
C           57.35       30.83       -4.45       
C           64.67       30.15       -15.93      
C           63.75       29.16       -16.29      
S           64.22       30.91       -14.43      
H           61.87       28.39       -15.38      
H           63.79       28.63       -17.16      
C           62.7        29.03       -15.3       
C           62.83       29.91       -14.22      
C           73.43       33.3        -21.87      
N           72.9        34.2        -21.04      
C           72.58       32.25       -22.39      
C           71.68       34.02       -20.57      
C           70.77       32.95       -20.81      
C           69.64       33.03       -19.85      
C           70.03       34.17       -18.96      
N           71.28       34.63       -19.39      
C           68.46       32.22       -19.63      
C           67.94       31.23       -20.69      
N           66.9        30.51       -20.09      
C           66.65       31.02       -18.83      
C           67.32       32.48       -17.17      
C           67.55       32.01       -18.51      
C           71.29       32.07       -21.83      
O           68.29       30.99       -21.87      
O           69.47       34.64       -17.98      
C           66.04       29.7        -21.0       
C           72.11       35.54       -18.67      
H           73.14       35.48       -19.05      
H           71.71782    36.55677    -18.69179   
H           72.13       35.31       -17.71      
H           65.61       28.83       -20.44      
H           65.12543    30.2401     -21.24485   
H           66.78       29.41       -21.82      
H           66.32       32.26       -15.3       
H           67.92       33.25       -16.85      
H           70.61       31.31       -22.22      
H           72.88       31.59       -23.17      
C           66.48       31.79       -16.26      
N           65.78       30.35       -18.0       
C           65.73       30.72       -16.71      
C           77.21       32.96       -22.67      
C           76.99       34.32       -22.4       
S           75.76       32.05       -22.57      
H           75.14       35.41       -21.83      
H           77.8        35.1        -22.45      
C           75.61       34.51       -22.08      
C           74.84       33.47       -22.22      
C           86.41       26.73       -23.59      
N           86.41       27.78       -22.69      
C           85.31       26.57       -24.43      
C           85.28       28.38       -22.43      
C           84.05       28.17       -23.16      
C           83.05       29.07       -22.64      
C           83.85       29.91       -21.6       
N           85.1        29.42       -21.52      
C           81.68       29.33       -22.82      
C           80.83       28.29       -23.62      
N           79.53       28.84       -23.77      
C           79.48       30.15       -23.2       
C           80.71       31.66       -21.92      
C           80.72       30.43       -22.55      
C           84.13       27.25       -24.22      
O           81.21       27.32       -24.23      
O           83.48       30.74       -20.8       
C           78.54       28.2        -24.67      
C           85.85       29.4        -20.3       
H           86.06       28.35       -20.06      
H           86.73069    30.03211    -20.41364   
H           85.24       29.77       -19.55      
H           79.04       27.87       -25.58      
H           77.94661    27.43811    -24.16452   
H           77.81       28.98       -24.85      
H           79.55       33.45       -21.57      
H           81.59       31.96       -21.32      
H           83.43       27.03       -24.97      
H           85.34       25.91       -25.33      
C           79.55       32.53       -22.11      
N           78.35       30.84       -23.22      
C           78.45       32.19       -22.81      
C           90.15       25.9        -24.07      
C           89.46       24.72       -24.37      
S           89.1        27.21       -23.62      
H           87.32       24.09       -24.47      
H           89.9        23.79       -24.63      
C           88.05       24.92       -24.28      
C           87.68       26.22       -23.85      
C           100.77      26.65       -26.42      
N           99.97       27.72       -26.56      
C           100.36      25.37       -26.0       
C           98.72       27.47       -26.27      
C           98.1        26.24       -25.85      
C           96.7        26.51       -25.62      
C           96.55       27.93       -26.14      
N           97.78       28.46       -26.37      
C           95.6        25.75       -25.17      
C           95.57       24.24       -25.22      
N           94.3        23.85       -24.96      
C           93.42       24.92       -24.72      
C           93.56       27.32       -24.43      
C           94.2        26.14       -24.82      
C           98.99       25.16       -25.83      
O           96.51       23.48       -25.44      
O           95.58       28.63       -26.32      
C           93.86       22.47       -24.79      
C           97.91       29.87       -26.6       
H           98.84       30.18       -26.19      
H           97.84628    30.20985    -27.6337    
H           97.21       30.38       -25.9       
H           92.8        22.41       -25.14      
H           93.92307    22.14064    -23.75287   
H           94.58       21.92       -25.36      
H           91.69       28.07       -23.78      
H           94.0        28.28       -24.33      
H           98.74       24.21       -25.46      
H           101.07      24.51       -25.9       
C           92.25       27.21       -24.12      
N           92.1        24.85       -24.59      
C           91.59       26.08       -24.24      
C           104.27      28.28       -26.26      
C           104.5       26.98       -25.98      
S           102.6       28.62       -26.52      
H           103.31      25.17       -25.81      
H           105.45      26.61       -25.75      
C           103.3       26.24       -26.11      
C           102.17      26.99       -26.46      
C           108.63      37.97       -23.24      
N           109.21      36.81       -23.0       
C           107.31      37.95       -23.71      
C           108.69      35.68       -23.37      
C           107.45      35.49       -24.06      
C           107.34      34.05       -24.4       
C           108.61      33.51       -23.71      
N           109.36      34.51       -23.2       
C           106.4       33.26       -25.09      
C           105.4       33.86       -26.12      
N           104.68      32.77       -26.6       
C           105.19      31.59       -26.18      
C           106.54      30.66       -24.5       
C           106.15      31.79       -25.19      
C           106.72      36.72       -24.18      
O           105.2       35.01       -26.44      
O           109.02      32.36       -23.79      
C           103.58      32.97       -27.59      
C           110.66      34.37       -22.73      
H           111.19      35.27       -22.96      
H           110.69543   34.16453    -21.66013   
H           111.18      33.56       -23.25      
H           103.03      33.9        -27.43      
H           103.88123   32.77163    -28.6186    
H           102.86      32.19       -27.51      
H           106.47      28.48       -24.5       
H           107.18      30.76       -23.66      
H           105.74      36.69       -24.6       
H           106.83      38.88       -23.82      
C           105.99      29.41       -24.88      
N           104.7       30.47       -26.5       
C           105.1       29.36       -25.95      
C           109.84      41.57       -22.31      
C           110.69      40.71       -21.75      
S           108.56      40.71       -23.13      
H           111.24      38.55       -21.91      
H           111.6       40.97       -21.22      
C           110.49      39.31       -22.17      
C           109.32      39.17       -22.9       
C           108.53      52.42       -22.16      
N           109.81      52.0        -22.17      
C           107.47      51.6        -22.59      
C           109.99      50.7        -22.34      
C           109.04      49.73       -22.78      
C           109.75      48.46       -22.96      
C           111.11      48.74       -22.35      
N           111.24      50.16       -22.16      
C           109.33      47.16       -23.29      
C           108.05      46.89       -24.05      
N           107.82      45.54       -24.05      
C           108.81      44.82       -23.42      
C           110.93      45.15       -22.35      
C           109.82      45.71       -23.01      
C           107.77      50.3        -22.98      
O           107.17      47.61       -24.5       
O           112.12      48.06       -22.15      
C           106.62      45.03       -24.65      
C           112.48      50.92       -22.28      
H           112.33      51.81       -22.83      
H           112.92108   51.16505    -21.31382   
H           113.07      50.21       -22.86      
H           106.22      44.13       -24.1       
H           106.77846   44.73469    -25.6872    
H           105.89      45.81       -24.66      
H           111.79      43.24       -21.89      
H           111.8       45.66       -22.01      
H           106.86      49.78       -23.33      
H           106.48      52.02       -22.62      
C           110.98      43.78       -22.33      
N           108.75      43.51       -23.16      
C           109.85      43.0        -22.64      
C           108.63      56.02       -20.73      
C           107.33      55.56       -20.62      
S           109.68      54.78       -21.32      
H           106.24      53.66       -20.96      
H           106.6       56.15       -20.2       
C           107.16      54.21       -21.03      
C           108.34      53.76       -21.55      
C           112.73      65.64       -16.79      
N           111.63      65.06       -16.29      
C           113.37      65.08       -17.95      
C           111.19      63.9        -16.77      
C           111.84      63.12       -17.79      
C           111.02      61.88       -17.96      
C           109.96      62.04       -16.91      
N           110.21      63.15       -16.17      
C           111.18      60.69       -18.71      
C           112.54      60.34       -19.42      
N           112.34      59.05       -20.06      
C           111.04      58.58       -19.84      
C           108.99      59.24       -18.81      
C           110.32      59.55       -19.05      
C           112.89      63.79       -18.38      
O           113.62      60.95       -19.44      
O           108.94      61.31       -16.65      
C           113.18      58.67       -21.2       
C           109.78      63.26       -14.81      
H           108.64      63.17       -14.79      
H           110.17486   62.49799    -14.13804   
H           109.89      64.31       -14.45      
H           112.61      58.39       -22.11      
H           113.93557   57.90018    -21.04318   
H           113.77      59.52       -21.6       
H           107.39      57.79       -19.19      
H           108.31      59.92       -18.33      
H           113.43      63.36       -19.23      
H           114.08      65.72       -18.5       
C           108.45      58.05       -19.32      
N           110.57      57.48       -20.41      
C           109.23      57.28       -20.2       
C           114.0       68.88       -15.17      
C           112.67      68.79       -14.91      
S           114.51      67.66       -16.31      
H           111.0       67.52       -15.58      
H           112.18      69.51       -14.29      
C           112.02      67.77       -15.63      
C           112.86      67.02       -16.36      
C           122.42      75.01       -11.69      
N           121.22      75.37       -11.3       
C           122.62      73.96       -12.48      
C           120.19      74.7        -11.84      
C           120.31      73.57       -12.7       
C           118.97      73.02       -12.9       
C           118.05      74.05       -12.16      
N           118.84      74.95       -11.51      
C           118.46      71.89       -13.58      
C           119.26      71.02       -14.5       
N           118.47      69.97       -14.99      
C           117.14      70.22       -14.65      
C           115.77      71.46       -13.17      
C           117.07      71.29       -13.7       
C           121.6       73.21       -12.98      
O           120.43      71.15       -14.78      
O           116.87      74.21       -12.3       
C           119.1       68.69       -15.4       
C           118.43      76.11       -10.81      
H           119.04      76.99       -11.08      
H           118.37353   75.92647    -9.73705    
H           117.38      76.28       -11.05      
H           118.56      67.93       -14.86      
H           118.88066   68.41216    -16.43092   
H           120.17      68.77       -15.14      
H           113.79      71.13       -13.41      
H           115.54      72.21       -12.45      
H           121.85      72.27       -13.46      
H           123.69      73.6        -12.57      
C           114.73      70.72       -13.75      
N           116.18      69.49       -15.15      
C           114.94      69.83       -14.71      
C           125.0       77.5        -10.05      
C           125.69      76.65       -10.84      
S           123.32      77.14       -10.1       
H           125.24      75.15       -12.29      
H           126.74      76.77       -11.13      
C           124.9       75.73       -11.51      
C           123.59      75.82       -11.23      
C           127.17      87.32       -5.39       
N           128.13      86.76       -6.14       
C           125.99      86.63       -5.12       
C           127.85      85.48       -6.56       
C           126.72      84.7        -6.35       
C           127.03      83.3        -6.99       
C           128.46      83.49       -7.53       
N           128.74      84.8        -7.38       
C           126.2       82.21       -7.22       
C           124.92      82.05       -6.4        
N           124.26      80.98       -6.96       
C           124.99      80.37       -7.96       
C           127.1       80.39       -9.01       
C           126.2       80.99       -8.11       
C           125.73      85.39       -5.72       
O           124.42      82.66       -5.45       
O           129.16      82.69       -8.09       
C           122.89      80.71       -6.72       
C           129.71      85.54       -8.24       
H           130.63      84.9        -8.41       
H           129.25828   85.89851    -9.16495    
H           130.13      86.44       -7.77       
H           122.66      79.69       -6.38       
H           122.31334   80.91353    -7.6223     
H           122.54      81.32       -5.92       
H           127.23      78.99       -10.64      
H           128.08      80.86       -9.25       
H           124.67      85.03       -5.73       
H           125.2       87.15       -4.64       
C           126.71      79.32       -9.75       
N           124.6       79.2        -8.48       
C           125.45      78.74       -9.45       
C           127.48      90.81       -3.59       
C           128.69      90.51       -4.07       
S           126.39      89.43       -3.75       
H           129.64      88.8        -5.01       
H           129.39      91.28       -4.06       
C           128.73      89.25       -4.72       
C           127.49      88.62       -4.79       
H           55.76       33.45       10.93       
H           127.27      91.68       -3.03       
