392

C           53.55       27.15       39.26       
N           54.34       28.07       39.73       
C           52.56       26.51       40.04       
C           54.12       28.38       41.02       
C           53.19       27.82       41.94       
C           53.37       28.5        43.23       
C           54.53       29.49       43.0        
N           54.95       29.36       41.62       
C           52.69       28.36       44.43       
C           51.3        27.74       44.47       
N           50.78       27.93       45.71       
C           51.69       28.53       46.61       
C           53.74       29.7        46.64       
C           52.87       28.86       45.86       
C           52.39       26.8        41.4        
O           50.66       27.23       43.6        
O           54.95       30.37       43.75       
C           49.4        27.6        46.07       
C           55.41       30.6        40.95       
H           54.86       31.35       41.48       
H           56.49598    30.69108    40.97102    
H           55.07       30.66       39.88       
H           48.93       28.42       46.53       
H           49.29732    26.65531    46.60396    
H           48.86       27.56       45.17       
H           54.1        30.65       48.48       
H           54.73       30.1        46.28       
H           51.79       26.19       42.05       
H           51.83       25.8        39.61       
C           53.32       30.14       47.89       
N           51.33       28.85       47.78       
C           52.12       29.69       48.45       
C           54.99       26.01       35.83       
C           53.73       25.69       35.82       
S           55.46       26.78       37.3        
H           52.04       25.79       37.17       
H           53.27       25.17       35.01       
C           53.03       26.04       37.01       
C           53.84       26.71       37.91       
C           61.64       26.81       26.84       
N           62.05       27.28       28.05       
C           60.42       26.29       26.7        
C           61.18       27.23       29.02       
C           59.94       26.53       29.07       
C           59.31       26.66       30.42       
C           60.32       27.52       31.18       
N           61.4        27.8        30.26       
C           58.17       26.16       31.12       
C           57.07       25.28       30.48       
N           55.99       25.12       31.3        
C           56.28       25.67       32.55       
C           58.04       26.7        33.77       
C           57.64       26.19       32.53       
C           59.57       26.13       27.76       
O           57.01       24.83       29.24       
O           60.23       27.96       32.25       
C           54.62       24.78       30.75       
C           62.54       28.45       30.74       
H           62.19       29.26       31.34       
H           63.18796    27.7463     31.26255    
H           63.0        28.98       29.94       
H           53.92       25.35       31.21       
H           54.37858    23.73133    30.92352    
H           54.75       24.97       29.7        
H           57.51       26.9        35.86       
H           58.97       27.2        33.92       
H           58.63       25.75       27.64       
H           60.13       25.88       25.75       
C           57.21       26.47       34.89       
N           55.43       25.52       33.57       
C           55.94       25.88       34.75       
C           64.52       27.22       24.26       
C           63.51       26.53       23.7        
S           64.12       27.75       25.85       
H           61.58       25.76       24.35       
H           63.6        26.07       22.79       
C           62.4        26.36       24.54       
C           62.56       26.95       25.74       
C           74.8        26.85       20.53       
N           74.6        27.27       21.8        
C           73.77       26.37       19.73       
C           73.36       27.32       22.19       
C           72.21       26.8        21.47       
C           71.04       27.02       22.36       
C           71.64       27.61       23.66       
N           73.0        27.81       23.44       
C           69.7        26.74       22.12       
C           69.11       25.85       20.99       
N           67.78       25.69       21.24       
C           67.39       26.46       22.3        
C           68.14       28.04       23.86       
C           68.5        27.17       22.86       
C           72.46       26.29       20.21       
O           69.69       25.19       20.18       
O           70.98       27.93       24.64       
C           66.78       25.07       20.33       
C           73.76       28.75       24.23       
H           74.69       28.34       24.61       
H           73.96591    29.66595    23.67617    
H           73.26       29.03       25.11       
H           67.2        25.03       19.31       
H           66.48066    24.07219    20.65073    
H           65.94       25.76       20.23       
H           66.65       28.8        25.15       
H           68.93       28.58       24.36       
H           71.69       26.03       19.5        
H           73.9        26.02       18.67       
C           66.85       28.13       24.38       
N           66.13       26.61       22.64       
C           65.86       27.41       23.71       
C           78.43       26.51       19.1        
C           78.49       27.07       20.39       
S           76.83       26.12       18.68       
H           77.01       27.77       21.91       
H           79.45       27.44       20.78       
C           77.2        27.24       20.97       
C           76.21       26.79       20.2        
C           87.17       24.36       12.8        
N           87.01       25.65       13.18       
C           86.34       23.35       13.14       
C           85.92       25.94       13.93       
C           84.93       24.96       14.29       
C           83.88       25.67       15.03       
C           84.41       27.12       15.15       
N           85.53       27.24       14.4        
C           82.67       25.2        15.59       
C           81.84       23.98       15.08       
N           80.7        23.81       15.82       
C           80.59       24.92       16.7        
C           81.67       26.94       17.36       
C           81.68       25.76       16.62       
C           85.13       23.68       13.82       
O           82.2        23.21       14.2        
O           83.89       28.09       15.68       
C           79.9        22.58       15.77       
C           86.37       28.42       14.44       
H           87.37       28.12       14.72       
H           86.52364    28.96873    13.51081    
H           86.1        29.03       15.32       
H           80.11       21.94       14.95       
H           79.99829    21.91304    16.62651    
H           78.83       22.9        15.71       
H           80.52       28.22       18.61       
H           82.53       27.61       17.28       
H           84.45       22.87       14.14       
H           86.58       22.35       12.93       
C           80.59       27.21       18.18       
N           79.53       25.19       17.47       
C           79.57       26.25       18.3        
C           90.92       24.37       11.8        
C           90.44       23.06       11.62       
S           89.73       25.39       12.53       
H           88.55       22.0        11.82       
H           90.98       22.29       11.15       
C           89.06       22.94       11.9        
C           88.53       24.09       12.34       
C           101.47      27.82       11.85       
N           100.52      28.64       11.36       
C           101.24      26.48       12.11       
C           99.32       28.14       11.29       
C           98.9        26.8        11.52       
C           97.39       26.8        11.35       
C           97.12       28.21       10.94       
N           98.25       28.98       11.0        
C           96.42       25.86       11.48       
C           96.76       24.4        11.58       
N           95.67       23.62       11.72       
C           94.54       24.42       11.68       
C           93.84       26.66       11.36       
C           94.93       25.8        11.5        
C           99.93       25.96       11.86       
O           97.85       23.93       11.8        
O           96.06       28.69       10.6        
C           95.77       22.24       12.03       
C           98.3        30.44       10.78       
H           99.09       30.87       11.46       
H           98.52351    30.60065    9.72533     
H           97.28       30.76       11.01       
H           94.88       21.7        11.64       
H           95.75558    22.01656    13.09675    
H           96.59       21.83       11.56       
H           91.7        26.81       11.35       
H           94.0        27.72       11.22       
H           99.76       24.99       12.25       
H           102.02      25.97       12.53       
C           92.54       26.15       11.5        
N           93.3        23.99       11.71       
C           92.29       24.84       11.72       
C           104.38      30.26       12.29       
C           104.87      29.02       12.59       
S           102.69      30.24       12.04       
H           104.11      26.94       12.52       
H           105.87      28.93       13.04       
C           103.98      27.95       12.36       
C           102.74      28.46       12.0        
C           108.07      40.37       15.21       
N           108.72      39.22       15.46       
C           106.86      40.31       14.59       
C           108.22      38.07       15.1        
C           107.03      37.86       14.35       
C           106.97      36.44       14.14       
C           108.3       35.87       14.74       
N           108.9       36.91       15.35       
C           106.13      35.64       13.45       
C           104.98      36.18       12.64       
N           104.34      35.15       11.96       
C           104.85      33.94       12.34       
C           106.67      32.98       13.57       
C           105.99      34.16       13.21       
C           106.37      39.04       14.17       
O           104.49      37.3        12.46       
O           108.88      34.78       14.76       
C           103.02      35.14       11.44       
C           110.28      36.78       15.89       
H           110.78      37.7        15.74       
H           110.25198   36.6259     16.96869    
H           110.79      36.03       15.3        
H           102.44      35.94       11.9        
H           103.04146   35.21154    10.35256    
H           102.4       34.21       11.68       
H           106.74      30.9        13.5        
H           107.67      32.93       14.09       
H           105.43      39.01       13.62       
H           106.37      41.29       14.37       
C           106.17      31.75       13.19       
N           104.35      32.68       12.02       
C           104.98      31.57       12.48       
C           109.14      43.72       16.76       
C           110.14      42.84       17.06       
S           107.83      43.0        15.94       
H           110.69      40.76       16.46       
H           111.07      43.13       17.47       
C           109.96      41.56       16.43       
C           108.73      41.51       15.75       
C           108.26      54.24       19.53       
N           109.52      53.81       19.23       
C           107.13      53.53       19.25       
C           109.55      52.58       18.65       
C           108.44      51.74       18.35       
C           108.99      50.42       17.91       
C           110.47      50.62       18.04       
N           110.69      51.89       18.48       
C           108.45      49.22       17.46       
C           107.02      49.11       16.97       
N           106.77      47.79       16.64       
C           107.88      47.0        16.85       
C           110.18      47.17       17.57       
C           108.94      47.84       17.32       
C           107.19      52.26       18.73       
O           106.17      50.0        16.89       
O           111.33      49.93       17.7        
C           105.45      47.33       16.23       
C           111.99      52.42       18.31       
H           111.96      53.48       18.09       
H           112.5048    52.3485     19.26811    
H           112.54      52.0        17.5        
H           105.04      46.36       16.75       
H           105.47222   47.14484    15.15607    
H           104.74      48.06       16.53       
H           111.13      45.36       17.65       
H           111.05      47.7        17.93       
H           106.28      51.75       18.51       
H           106.09      53.92       19.5        
C           110.22      45.79       17.41       
N           107.9       45.74       16.63       
C           109.08      45.1        16.99       
C           108.94      57.63       21.39       
C           107.64      57.22       21.66       
S           109.68      56.44       20.37       
H           106.19      55.75       20.69       
H           106.92      57.8        22.23       
C           107.22      56.12       20.79       
C           108.26      55.51       20.17       
C           115.62      65.47       25.89       
N           114.4       65.25       26.39       
C           116.11      64.61       24.88       
C           113.61      64.39       25.77       
C           113.91      63.57       24.71       
C           112.75      62.69       24.38       
C           111.75      63.07       25.39       
N           112.39      64.03       26.23       
C           112.41      61.68       23.39       
C           113.37      61.34       22.26       
N           112.77      60.39       21.46       
C           111.53      60.07       21.95       
C           110.09      60.24       23.8        
C           111.27      60.74       23.21       
C           115.22      63.73       24.3        
O           114.53      61.62       22.16       
O           110.64      62.63       25.61       
C           113.25      59.88       20.18       
C           111.69      64.72       27.26       
H           110.64      64.46       27.19       
H           111.91937   64.40461    28.27785    
H           111.83      65.75       27.01       
H           112.47      59.91       19.4        
H           113.70255   58.89135    20.25659    
H           114.07      60.58       19.84       
H           108.42      58.89       23.66       
H           109.72      60.59       24.75       
H           115.67      63.14       23.57       
H           117.15      64.61       24.58       
C           109.29      59.24       23.14       
N           110.78      59.12       21.3        
C           109.6       58.82       21.89       
C           118.43      67.58       27.58       
C           117.34      67.66       28.42       
S           118.07      66.63       26.16       
H           115.32      66.83       28.5        
H           117.38      68.11       29.43       
C           116.26      66.87       27.96       
C           116.44      66.3        26.71       
C           128.79      70.58       30.15       
N           127.94      70.16       31.11       
C           128.59      70.35       28.81       
C           126.75      69.69       30.74       
C           126.31      69.46       29.37       
C           124.86      69.1        29.42       
C           124.57      69.1        30.95       
N           125.76      69.38       31.65       
C           123.81      68.85       28.55       
C           123.99      69.0        27.06       
N           122.83      68.73       26.42       
C           121.83      68.41       27.32       
C           121.5       67.75       29.62       
C           122.41      68.37       28.66       
C           127.32      69.82       28.41       
O           125.07      69.06       26.45       
O           123.56      68.86       31.6        
C           122.76      68.47       24.97       
C           125.85      69.64       33.04       
H           126.52      70.43       33.23       
H           126.06112   68.7181     33.58188    
H           124.86      69.9        33.35       
H           122.21      67.53       24.79       
H           122.37193   69.31082    24.39508    
H           123.74      68.36       24.56       
H           119.49      67.23       30.06       
H           121.83      67.44       30.59       
H           127.19      69.81       27.34       
H           129.44      70.61       28.15       
C           120.2       67.59       29.28       
N           120.61      68.14       26.93       
C           119.83      67.74       27.98       
C           131.53      72.42       32.16       
C           132.0       72.36       30.9        
S           130.09      71.42       32.33       
H           131.24      71.76       28.92       
H           132.87      72.78       30.51       
C           131.06      71.76       29.99       
C           129.92      71.29       30.63       
C           136.71      77.87       40.31       
N           136.56      78.51       39.08       
C           136.08      76.66       40.55       
C           135.8       77.9        38.2        
C           135.09      76.64       38.32       
C           134.49      76.25       37.06       
C           134.99      77.42       36.2        
N           135.6       78.34       36.93       
C           133.64      75.21       36.61       
C           132.91      74.23       37.5        
N           132.13      73.41       36.78       
C           132.37      73.66       35.49       
C           133.47      75.04       33.94       
C           133.25      74.69       35.28       
C           135.25      76.02       39.62       
O           132.87      74.26       38.74       
O           134.67      77.66       35.01       
C           131.5       72.21       37.32       
C           136.02      79.62       36.36       
H           135.91      79.57       35.34       
H           135.51744   80.45062    36.85558    
H           137.09      79.72       36.47       
H           131.58      71.23       36.71       
H           130.46051   72.37046    37.60603    
H           132.09      72.04       38.17       
H           133.03      74.61       31.87       
H           134.15      75.84       33.61       
H           134.92      75.09       39.85       
H           136.21      76.23       41.56       
C           132.9       74.3        32.94       
N           131.73      72.98       34.52       
C           132.03      73.23       33.25       
C           138.37      80.56       42.64       
C           138.35      79.41       43.33       
S           137.69      80.34       41.07       
H           137.8       77.32       42.96       
H           138.53      79.29       44.41       
C           137.91      78.29       42.54       
C           137.51      78.6        41.29       
H           52.03       29.69       49.55       
H           138.94      81.43       42.94       
