392

C           66.79       41.63       2.07        
N           67.83       42.3        2.52        
C           65.74       42.23       1.35        
C           67.92       43.6        2.15        
C           67.02       44.34       1.36        
C           67.54       45.75       1.21        
C           68.84       45.74       1.94        
N           69.0        44.43       2.48        
C           67.07       46.88       0.55        
C           65.86       46.81       -0.41       
N           65.65       48.09       -0.88       
C           66.55       48.99       -0.27       
C           68.32       49.19       1.32        
C           67.41       48.31       0.66        
C           65.93       43.55       0.87        
O           65.29       45.9        -0.9        
O           69.59       46.67       2.25        
C           64.72       48.45       -1.91       
C           70.25       43.94       3.07        
H           71.09       44.46       2.67        
H           70.27179    43.91095    4.15939     
H           70.39       42.9        2.74        
H           65.03       49.36       -2.38       
H           63.67372    48.48791    -1.60673    
H           64.75       47.75       -2.74       
H           68.92       51.21       1.63        
H           68.86       48.83       2.21        
H           65.29       43.92       0.1         
H           64.9        41.7        0.97        
C           68.3        50.53       1.03        
N           66.58       50.27       -0.65       
C           67.51       51.02       0.02        
C           66.83       38.03       3.69        
C           65.61       38.29       3.17        
S           67.95       39.39       3.42        
H           64.7        39.88       1.93        
H           64.76       37.65       3.27        
C           65.53       39.53       2.48        
C           66.69       40.23       2.5         
C           69.46       28.23       8.23        
N           70.4        29.14       8.22        
C           68.18       28.49       7.68        
C           70.06       30.31       7.72        
C           68.74       30.74       7.24        
C           68.79       32.18       6.79        
C           70.22       32.49       7.14        
N           70.88       31.4        7.61        
C           67.9        33.1        6.23        
C           66.38       32.76       6.21        
N           65.76       33.81       5.45        
C           66.69       34.79       5.18        
C           68.93       35.42       5.39        
C           68.0        34.41       5.6         
C           67.8        29.75       7.18        
O           65.8        31.88       6.79        
O           70.85       33.57       6.88        
C           64.37       33.77       5.15        
C           72.34       31.23       7.52        
H           72.63       31.96       6.7         
H           72.81857    31.52004    8.45539     
H           72.54       30.2        7.31        
H           64.26       33.71       4.11        
H           63.72403    34.47154    5.67789     
H           64.04       32.8        5.33        
H           69.37       37.54       4.88        
H           69.93       35.29       5.81        
H           66.8        29.92       6.69        
H           67.45       27.68       7.58        
C           68.58       36.73       4.87        
N           66.33       35.89       4.54        
C           67.28       36.85       4.37        
C           71.42       24.92       8.96        
C           70.08       24.63       9.05        
S           71.64       26.66       8.76        
H           68.15       25.71       8.91        
H           69.67       23.59       9.04        
C           69.23       25.76       9.01        
C           69.93       26.93       8.71        
C           79.72       17.95       6.42        
N           79.91       18.96       7.35        
C           78.44       17.74       5.84        
C           78.86       19.76       7.54        
C           77.54       19.55       7.07        
C           76.7        20.6        7.76        
C           77.66       21.28       8.68        
N           78.91       20.76       8.54        
C           75.43       21.0        7.67        
C           74.39       20.19       6.87        
N           73.1        20.84       6.91        
C           73.21       22.03       7.63        
C           74.81       23.35       8.82        
C           74.61       22.11       8.12        
C           77.4        18.54       6.08        
O           74.46       19.12       6.31        
O           77.35       22.03       9.6         
C           71.88       20.57       6.14        
C           79.83       20.89       9.63        
H           80.56       20.11       9.74        
H           80.52903    21.71361    9.48466     
H           79.21       20.93       10.5        
H           72.12       19.93       5.26        
H           71.05712    20.1089     6.68622     
H           71.58       21.53       5.69        
H           74.0        25.08       9.76        
H           75.81       23.58       9.14        
H           76.45       18.31       5.74        
H           78.32       16.99       5.05        
C           73.77       24.2        9.1         
N           72.25       22.92       7.88        
C           72.52       24.0        8.69        
C           83.27       16.79       5.5         
C           82.45       15.8        5.1         
S           82.42       18.1        6.31        
H           80.28       15.5        4.94        
H           82.81       15.0        4.53        
C           81.1        16.06       5.33        
C           80.95       17.21       6.03        
C           92.44       18.79       -0.12       
N           92.02       19.7        0.79        
C           91.84       17.5        -0.29       
C           91.1        19.33       1.58        
C           90.38       18.1        1.61        
C           89.43       18.19       2.74        
C           89.58       19.59       3.26        
N           90.6        20.17       2.58        
C           88.43       17.29       3.15        
C           88.32       15.83       2.73        
N           87.14       15.29       3.3         
C           86.46       16.22       4.0         
C           86.5        18.49       4.58        
C           87.2        17.43       3.93        
C           90.81       17.13       0.61        
O           88.99       15.1        2.01        
O           89.15       20.22       4.24        
C           86.94       13.82       3.31        
C           90.78       21.61       2.66        
H           89.94       22.06       3.06        
H           91.72542    21.9059     3.11467     
H           90.74       21.89       1.61        
H           87.19       13.57       2.23        
H           87.68171    13.31846    3.93163     
H           85.92       13.58       3.62        
H           84.86       19.03       5.78        
H           87.06       19.41       4.77        
H           90.48       16.14       0.55        
H           92.06       16.83       -1.05       
C           85.31       18.19       5.27        
N           85.24       16.0        4.51        
C           84.68       16.97       5.22        
C           94.94       20.66       -2.41       
C           94.98       19.34       -2.77       
S           94.02       20.89       -0.92       
H           93.93       17.5        -2.06       
H           95.74       18.88       -3.42       
C           94.03       18.55       -2.01       
C           93.33       19.28       -1.09       
C           100.47      28.14       -8.3        
N           100.15      28.45       -7.03       
C           100.24      26.9        -8.77       
C           99.51       27.51       -6.35       
C           99.25       26.19       -6.75       
C           98.5        25.54       -5.63       
C           98.31       26.68       -4.66       
N           99.09       27.72       -5.04       
C           97.95       24.24       -5.52       
C           98.23       23.06       -6.4        
N           97.63       21.92       -5.93       
C           96.93       22.17       -4.79       
C           96.36       23.98       -3.35       
C           97.1        23.57       -4.47       
C           99.68       25.88       -7.99       
O           98.95       22.98       -7.39       
O           97.6        26.71       -3.65       
C           97.25       20.83       -6.86       
C           99.06       29.07       -4.46       
H           98.15       29.09       -3.85       
H           99.91893    29.28654    -3.82482    
H           98.96       29.8        -5.28       
H           96.15       20.81       -6.91       
H           97.57083    19.81646    -6.61938    
H           97.63       21.12       -7.87       
H           95.17       23.22       -1.63       
H           96.28       25.03       -3.13       
H           99.42       24.96       -8.43       
H           100.61      26.63       -9.79       
C           95.73       23.0        -2.57       
N           96.23       21.24       -4.14       
C           95.72       21.67       -2.98       
C           102.11      31.54       -9.27       
C           102.09      30.75       -10.38      
S           101.51      30.6        -7.94       
H           101.3       28.79       -11.1       
H           102.42      31.11       -11.4       
C           101.54      29.46       -10.21      
C           101.14      29.23       -8.96       
C           107.62      41.04       -8.65       
N           106.83      40.78       -7.57       
C           107.75      40.19       -9.75       
C           106.18      39.56       -7.68       
C           106.13      38.69       -8.83       
C           105.15      37.61       -8.5        
C           104.74      38.0        -7.09       
N           105.41      39.13       -6.66       
C           104.58      36.62       -9.24       
C           104.84      36.51       -10.73      
N           104.26      35.37       -11.22      
C           103.63      34.71       -10.19      
C           103.52      34.69       -7.78       
C           103.93      35.33       -8.94       
C           106.96      39.05       -9.92       
O           105.18      37.32       -11.5       
O           103.82      37.57       -6.48       
C           104.09      35.03       -12.64      
C           105.45      39.66       -5.33       
H           104.5       39.9        -4.88       
H           106.0388    38.99409    -4.69914    
H           105.83      40.67       -5.37       
H           103.75      35.98       -13.13      
H           105.04283   34.88178    -13.14818   
H           103.46      34.17       -12.72      
H           102.85      32.81       -7.01       
H           103.77      34.95       -6.83       
H           107.02      38.42       -10.86      
H           108.38      40.46       -10.62      
C           103.04      33.37       -7.96       
N           103.04      33.53       -10.31      
C           102.71      32.84       -9.16       
C           109.13      44.56       -9.52       
C           108.75      44.64       -8.23       
S           108.87      42.95       -10.16      
H           107.91      43.14       -6.71       
H           108.77      45.52       -7.67       
C           108.3       43.33       -7.7        
C           108.18      42.38       -8.66       
C           112.77      52.01       -17.0       
N           112.83      52.19       -15.68      
C           112.15      50.85       -17.49      
C           112.27      51.29       -14.94      
C           111.72      50.11       -15.26      
C           111.41      49.42       -13.94      
C           111.73      50.52       -12.93      
N           112.19      51.6        -13.61      
C           110.77      48.15       -13.64      
C           110.22      47.21       -14.67      
N           109.77      46.11       -14.02      
C           109.82      46.29       -12.64      
C           110.86      47.61       -10.97      
C           110.58      47.43       -12.37      
C           111.66      49.85       -16.65      
O           110.12      47.36       -15.89      
O           111.25      50.62       -11.79      
C           109.06      44.99       -14.69      
C           112.55      52.86       -12.99      
H           113.27      53.51       -13.57      
H           111.66545   53.47348    -12.8188    
H           113.13      52.65       -12.06      
H           108.15      44.69       -14.23      
H           109.65799   44.0791     -14.71781   
H           108.64      45.26       -15.72      
H           110.45      46.88       -9.05       
H           111.42      48.5        -10.63      
H           111.26      48.97       -17.07      
H           112.15      50.7        -18.55      
C           110.37      46.69       -10.14      
N           109.33      45.38       -11.77      
C           109.63      45.54       -10.47      
C           114.81      54.84       -18.58      
C           114.43      54.08       -19.61      
S           114.34      54.22       -17.06      
H           113.25      52.17       -19.79      
H           114.7       54.27       -20.6       
C           113.63      53.0        -19.17      
C           113.49      52.96       -17.87      
C           121.9       63.55       -20.09      
N           121.48      63.18       -18.79      
C           121.3       62.89       -21.22      
C           120.59      62.18       -18.73      
C           119.93      61.47       -19.8       
C           119.05      60.38       -19.25      
C           119.1       60.74       -17.77      
N           119.97      61.8        -17.52      
C           118.24      59.35       -19.75      
C           118.07      59.02       -21.19      
N           117.24      57.87       -21.28      
C           116.86      57.44       -20.05      
C           117.22      57.75       -17.72      
C           117.42      58.27       -19.04      
C           120.35      61.84       -21.03      
O           118.54      59.49       -22.17      
O           118.62      60.22       -16.73      
C           116.57      57.45       -22.52      
C           119.99      62.57       -16.33      
H           119.05      62.48       -15.84      
H           120.82801   62.3517     -15.66804   
H           119.98      63.67       -16.63      
H           115.52      57.12       -22.23      
H           117.16073   56.64633    -22.95961   
H           116.49      58.33       -23.2       
H           116.28      56.19       -16.57      
H           117.66      58.22       -16.85      
H           119.87      61.47       -21.89      
H           121.4       63.29       -22.22      
C           116.37      56.63       -17.56      
N           116.04      56.41       -19.87      
C           115.74      56.0        -18.65      
C           124.6       66.26       -21.06      
C           124.81      65.88       -19.76      
S           123.35      65.27       -21.84      
H           123.79      64.47       -18.31      
H           125.59      66.27       -19.16      
C           123.92      64.85       -19.31      
C           123.09      64.42       -20.27      
C           129.0       73.5        -28.21      
N           129.4       73.38       -26.96      
C           127.95      72.73       -28.67      
C           128.76      72.62       -26.12      
C           127.64      71.82       -26.43      
C           127.39      71.06       -25.2       
C           128.36      71.69       -24.13      
N           129.14      72.58       -24.83      
C           126.46      70.04       -24.9       
C           125.35      69.59       -25.8       
N           124.62      68.61       -25.15      
C           125.12      68.35       -23.91      
C           127.03      68.86       -22.5       
C           126.32      69.11       -23.74      
C           127.23      71.88       -27.74      
O           125.05      69.97       -26.96      
O           128.61      71.29       -23.09      
C           123.4       68.02       -25.62      
C           130.36      73.12       -24.29      
H           130.39      74.15       -24.42      
H           131.23748   72.57245    -24.63397   
H           130.28      72.99       -23.18      
H           122.82      68.83       -26.16      
H           123.61259   67.18382    -26.28611   
H           122.76      67.72       -24.77      
H           126.94      67.75       -20.77      
H           127.94      69.27       -22.17      
H           126.51      71.26       -28.16      
H           127.63      72.69       -29.77      
C           126.43      67.93       -21.63      
N           124.61      67.51       -23.05      
C           125.28      67.23       -21.94      
C           131.36      76.21       -29.69      
C           130.36      75.95       -30.63      
S           131.07      75.26       -28.27      
H           128.48      74.87       -30.81      
H           130.23      76.44       -31.63      
C           129.38      75.05       -30.18      
C           129.74      74.47       -28.98      
C           140.16      83.14       -29.91      
N           139.09      83.31       -30.79      
C           140.06      82.19       -28.86      
C           138.17      82.37       -30.76      
C           137.91      81.37       -29.74      
C           136.68      80.64       -30.09      
C           136.26      81.29       -31.35      
N           137.14      82.33       -31.64      
C           135.88      79.66       -29.52      
C           136.32      79.0        -28.26      
N           135.4       78.04       -27.94      
C           134.44      77.87       -28.95      
C           133.78      78.76       -31.01      
C           134.63      78.89       -29.89      
C           138.88      81.39       -28.72      
O           137.21      79.25       -27.48      
O           135.36      81.16       -32.09      
C           135.3       77.43       -26.6       
C           137.01      83.21       -32.8       
H           136.53      82.66       -33.64      
H           136.50477   84.13626    -32.52633   
H           137.98      83.38       -33.14      
H           134.89      76.42       -26.71      
H           134.67339   78.03525    -25.94491   
H           136.29      77.31       -26.21      
H           131.95      77.81       -31.85      
H           133.99      79.29       -31.87      
H           138.82      80.75       -27.86      
H           140.75      82.13       -28.04      
C           132.68      77.88       -31.0       
N           133.38      77.03       -28.91      
C           132.45      77.12       -29.84      
C           143.35      85.28       -29.34      
C           142.74      85.72       -30.36      
S           142.47      83.89       -28.69      
H           140.89      85.2        -31.58      
H           143.1       86.61       -30.83      
C           141.57      84.98       -30.82      
C           141.27      84.03       -29.9       
H           67.84       51.97       -0.49       
H           144.13      85.8        -28.82      
