392

C           62.41       37.47       40.53       
N           63.22       37.95       39.6        
C           61.59       38.31       41.29       
C           63.11       39.22       39.35       
C           62.33       40.21       40.02       
C           62.55       41.5        39.35       
C           63.44       41.11       38.18       
N           63.73       39.78       38.28       
C           62.15       42.88       39.55       
C           61.43       43.37       40.82       
N           61.41       44.81       40.77       
C           61.93       45.23       39.61       
C           62.78       44.49       37.52       
C           62.3        44.13       38.8        
C           61.64       39.72       41.14       
O           60.91       42.77       41.72       
O           63.92       41.8        37.32       
C           60.88       45.56       41.87       
C           64.72       39.14       37.42       
H           64.66       39.38       36.41       
H           65.72619    39.22079    37.83129    
H           64.51       38.11       37.27       
H           60.23       46.3        41.59       
H           61.66107    46.15975    42.33725    
H           60.42       44.86       42.61       
H           63.19       46.09       36.17       
H           62.98       43.68       36.84       
H           61.08       40.27       41.8        
H           61.12       37.87       42.18       
C           62.83       45.82       37.14       
N           62.04       46.47       39.27       
C           62.58       46.78       38.08       
C           63.93       34.24       41.83       
C           62.65       34.28       42.32       
S           64.21       35.49       40.67       
H           60.86       35.65       42.22       
H           62.38       33.63       43.14       
C           61.88       35.44       41.9        
C           62.62       36.14       41.01       
C           70.61       25.56       42.81       
N           71.21       26.78       42.67       
C           69.24       25.45       42.78       
C           70.41       27.85       42.85       
C           69.0        27.84       42.88       
C           68.51       29.29       42.89       
C           69.78       30.05       42.76       
N           70.9        29.12       42.82       
C           67.24       29.91       42.93       
C           65.95       29.06       43.24       
N           64.85       29.9        43.14       
C           65.21       31.16       42.76       
C           67.17       32.49       42.23       
C           66.68       31.28       42.64       
C           68.42       26.59       42.85       
O           65.92       27.96       43.66       
O           69.97       31.21       42.65       
C           63.48       29.33       43.02       
C           72.29       29.38       42.55       
H           72.4        30.31       41.93       
H           72.88808    29.40086    43.46103    
H           72.57       28.57       41.85       
H           63.27       29.3        41.97       
H           62.66624    29.77321    43.59399    
H           63.52       28.31       43.37       
H           66.65       34.45       41.61       
H           68.17       32.55       41.81       
H           67.4        26.52       42.79       
H           68.86       24.47       42.62       
C           66.29       33.47       41.98       
N           64.38       32.11       42.57       
C           64.92       33.25       42.16       
C           73.23       23.16       41.29       
C           72.13       22.42       41.55       
S           73.03       24.83       41.76       
H           70.13       22.8        42.52       
H           71.98       21.35       41.4        
C           71.11       23.15       42.2        
C           71.41       24.47       42.37       
C           82.31       19.47       35.85       
N           82.09       20.85       36.13       
C           81.36       18.51       36.17       
C           81.06       21.19       36.9        
C           80.06       20.3        37.45       
C           79.08       21.14       38.2        
C           79.72       22.55       38.14       
N           80.82       22.5        37.33       
C           77.86       20.95       38.82       
C           77.21       19.54       39.07       
N           75.91       19.74       39.48       
C           75.73       21.06       39.83       
C           76.56       23.25       39.6        
C           76.82       21.87       39.41       
C           80.28       18.94       37.01       
O           77.8        18.51       38.73       
O           79.34       23.55       38.56       
C           74.88       18.73       39.23       
C           81.81       23.56       37.27       
H           82.81       23.1        37.29       
H           81.75089    24.18068    36.37593    
H           81.64       24.09       38.14       
H           74.13       18.83       39.96       
H           74.35941    18.9903     38.30841    
H           75.32       17.7        39.33       
H           75.39       24.72       40.6        
H           77.18       24.02       39.2        
H           79.49       18.21       37.24       
H           81.3        17.44       35.82       
C           75.48       23.68       40.39       
N           74.61       21.42       40.37       
C           74.5        22.77       40.66       
C           85.8        19.55       34.29       
C           85.61       18.22       34.78       
S           84.39       20.54       34.63       
H           83.89       17.13       35.88       
H           86.32       17.47       34.8        
C           84.27       17.99       35.3        
C           83.57       19.13       35.23       
C           95.85       22.38       30.63       
N           95.02       23.25       31.13       
C           95.44       21.06       30.32       
C           93.74       22.94       31.42       
C           93.16       21.63       31.25       
C           91.78       21.79       31.87       
C           91.76       23.17       32.5        
N           92.91       23.8        32.12       
C           90.7        20.96       32.13       
C           90.92       19.56       31.81       
N           89.9        18.78       32.29       
C           89.0        19.63       32.96       
C           88.47       21.85       33.19       
C           89.4        20.98       32.78       
C           94.02       20.73       30.55       
O           91.86       19.0        31.23       
O           90.93       23.78       33.24       
C           89.54       17.43       31.84       
C           93.15       25.19       32.35       
H           92.3        25.83       32.37       
H           93.76502    25.28784    33.24458    
H           93.66       25.52       31.45       
H           89.57       17.41       30.82       
H           90.15068    16.69       32.35728    
H           88.49       17.35       32.22       
H           86.6        22.33       33.98       
H           88.78       22.87       33.06       
H           93.79       19.74       30.43       
H           96.06       20.39       29.81       
C           87.25       21.53       33.69       
N           87.85       19.16       33.48       
C           86.93       20.14       33.72       
C           99.0        24.29       29.37       
C           99.23       22.94       29.12       
S           97.45       24.52       30.12       
H           98.19       21.04       29.39       
H           100.03      22.61       28.56       
C           98.14       22.1        29.53       
C           97.13       22.82       30.1        
C           105.87      32.23       26.05       
N           105.42      32.32       27.31       
C           105.76      31.06       25.29       
C           104.85      31.21       27.73       
C           104.59      29.94       27.12       
C           103.66      29.11       27.92       
C           103.47      30.03       29.16       
N           104.18      31.2        28.97       
C           102.95      27.97       27.72       
C           103.21      27.03       26.59       
N           102.42      25.93       26.67       
C           101.58      26.02       27.76       
C           100.95      27.49       29.48       
C           101.78      27.26       28.41       
C           105.21      29.9        25.88       
O           104.06      27.17       25.63       
O           102.9       29.82       30.21       
C           102.2       24.96       25.61       
C           103.97      32.42       29.74       
H           103.03      32.28       30.22       
H           104.79301   32.49738    30.45047    
H           103.79      33.32       29.14       
H           101.08      24.84       25.36       
H           102.61791   23.96398    25.75627    
H           102.61      25.46       24.7        
H           99.22       26.7        30.58       
H           101.01      28.42       29.9        
H           105.37      28.97       25.3        
H           106.22      30.94       24.3        
C           99.9        26.54       29.78       
N           100.68      25.15       28.05       
C           99.87       25.39       29.11       
C           107.62      35.58       25.59       
C           107.39      35.15       24.32       
S           107.15      34.47       26.81       
H           106.36      33.34       23.53       
H           107.51      35.68       23.4        
C           106.7       33.89       24.38       
C           106.48      33.42       25.61       
C           112.58      45.42       27.36       
N           112.6       44.46       28.33       
C           111.83      45.14       26.19       
C           111.88      43.38       28.13       
C           111.09      43.02       26.95       
C           110.71      41.61       27.2        
C           111.31      41.25       28.58       
N           112.06      42.33       28.97       
C           109.99      40.7        26.36       
C           109.45      41.02       24.95       
N           108.84      39.95       24.39       
C           108.79      38.95       25.38       
C           109.34      38.38       27.59       
C           109.44      39.36       26.64       
C           111.03      44.06       26.01       
O           109.61      42.09       24.3        
O           111.3       40.21       29.26       
C           108.24      40.02       23.07       
C           112.43      42.52       30.33       
H           111.6       42.0        30.92       
H           113.45564   42.28165    30.61169    
H           112.21      43.58       30.59       
H           107.88      41.08       22.97       
H           108.89411   39.65815    22.27671    
H           107.28      39.48       23.17       
H           108.69      36.43       28.03       
H           109.77      38.47       28.55       
H           110.47      43.98       25.1        
H           111.58      45.94       25.48       
C           108.75      37.15       27.28       
N           108.26      37.77       25.06       
C           108.16      36.83       25.99       
C           114.37      48.79       27.41       
C           114.61      48.2        28.61       
S           113.36      47.84       26.34       
H           114.01      46.35       29.73       
H           115.17      48.67       29.39       
C           113.95      46.93       28.78       
C           113.24      46.65       27.62       
C           119.72      56.78       21.86       
N           119.97      56.55       23.14       
C           118.96      55.85       21.2        
C           119.31      55.61       23.8        
C           118.43      54.69       23.2        
C           117.98      53.74       24.31       
C           118.86      54.2        25.44       
N           119.56      55.35       25.16       
C           117.09      52.69       24.35       
C           116.08      52.49       23.25       
N           115.08      51.69       23.79       
C           115.54      51.15       24.95       
C           117.24      51.18       26.54       
C           116.75      51.73       25.35       
C           118.29      54.89       21.82       
O           115.87      53.05       22.22       
O           119.0       53.67       26.59       
C           113.71      51.48       23.23       
C           120.57      56.01       25.93       
H           121.33      56.47       25.28       
H           120.18193   56.70147    26.67791    
H           121.04      55.21       26.29       
H           112.9       51.44       23.98       
H           113.68891   50.60816    22.57612    
H           113.52      52.29       22.5        
H           116.84      49.8        28.24       
H           118.17      51.43       26.93       
H           117.73      54.24       21.23       
H           118.82      55.97       20.17       
C           116.5       50.2        27.27       
N           114.77      50.31       25.63       
C           115.2       49.88       26.84       
C           122.58      59.15       20.63       
C           121.65      59.02       19.59       
S           122.1       58.19       22.03       
H           119.69      57.95       19.32       
H           121.78      59.55       18.66       
C           120.55      58.17       19.95       
C           120.58      57.73       21.26       
C           132.1       64.56       19.57       
N           131.6       64.42       20.88       
C           131.47      63.99       18.48       
C           130.44      63.79       21.01       
C           129.71      63.22       19.97       
C           128.44      62.69       20.54       
C           128.72      62.66       22.04       
N           129.79      63.53       22.24       
C           127.29      62.19       20.01       
C           126.95      62.36       18.55       
N           125.82      61.62       18.23       
C           125.34      61.05       19.37       
C           125.67      60.99       21.78       
C           126.11      61.45       20.5        
C           130.26      63.36       18.64       
O           127.56      63.09       17.73       
O           128.03      62.25       22.96       
C           125.24      61.44       16.9        
C           130.17      64.14       23.51       
H           129.29      64.57       24.03       
H           130.90265   63.56233    24.07358    
H           130.69      65.04       23.19       
H           124.17      61.36       16.95       
H           125.69367   60.60355    16.36836    
H           125.49      62.39       16.46       
H           124.3       59.67       22.72       
H           126.0       61.3        22.75       
H           129.78      62.99       17.8        
H           131.73      64.22       17.45       
C           124.6       60.12       21.78       
N           124.21      60.39       19.44       
C           123.8       59.89       20.64       
C           135.37      66.41       18.63       
C           135.32      66.37       20.0        
S           133.91      65.75       17.95       
H           133.8       65.75       21.52       
H           136.18      66.82       20.57       
C           134.12      65.8        20.49       
C           133.32      65.3        19.5        
C           140.82      71.68       10.7        
N           141.22      71.97       11.93       
C           140.03      70.61       10.3        
C           140.67      71.18       12.86       
C           139.75      70.13       12.69       
C           139.26      69.77       14.05       
C           140.25      70.55       15.04       
N           140.98      71.42       14.24       
C           138.29      68.87       14.5        
C           137.27      68.3        13.5        
N           136.29      67.55       14.22       
C           136.64      67.49       15.56       
C           138.1       68.46       17.13       
C           137.81      68.32       15.77       
C           139.56      69.78       11.35       
O           137.03      68.51       12.31       
O           140.29      70.47       16.25       
C           135.01      67.28       13.64       
C           142.06      72.25       14.73       
H           142.13      73.21       14.16       
H           143.0054    71.70768    14.74466    
H           141.83      72.49       15.77       
H           134.79      68.01       12.88       
H           135.05334   66.3192     13.12709    
H           134.32      67.22       14.46       
H           137.75      67.66       19.1        
H           138.99      68.96       17.41       
H           138.83      68.97       11.1        
H           139.78      70.48       9.24        
C           137.45      67.65       18.06       
N           135.87      67.0        16.44       
C           136.27      66.99       17.68       
C           141.52      75.06       9.01        
C           140.96      74.32       8.03        
S           141.85      74.1        10.38       
H           140.09      72.22       7.86        
H           140.66      74.7        7.0         
C           140.66      73.01       8.48        
C           141.03      72.75       9.77        
C           142.49      85.93       10.25       
N           141.83      85.56       9.15        
C           143.38      85.16       10.94       
C           141.89      84.24       8.91        
C           142.58      83.26       9.69        
C           142.28      81.93       9.08        
C           141.49      82.28       7.83        
N           141.28      83.63       7.81        
C           142.55      80.59       9.41        
C           143.48      80.24       10.6        
N           143.41      78.89       10.85       
C           142.64      78.28       9.9         
C           141.37      78.61       7.98        
C           142.13      79.26       8.97        
C           143.29      83.77       10.76       
O           144.0       80.99       11.41       
O           141.01      81.46       7.05        
C           143.59      78.23       12.09       
C           140.21      84.21       7.02        
H           139.87      85.04       7.63        
H           140.55818   84.65766    6.08915     
H           139.51      83.44       6.77        
H           144.11      77.24       12.03       
H           142.68095   78.21568    12.69126    
H           144.26      78.83       12.65       
H           140.5       76.88       7.27        
H           140.84      79.18       7.24        
H           143.6       83.16       11.55       
H           143.83      85.57       11.84       
C           141.17      77.25       8.01        
N           142.53      76.95       9.93        
C           141.68      76.49       9.0         
C           141.44      89.76       10.64       
C           142.49      89.54       11.49       
S           141.18      88.31       9.7         
H           143.84      87.73       12.03       
H           142.87      90.19       12.27       
C           143.0       88.12       11.42       
C           142.4       87.37       10.5        
H           62.59       47.85       37.75       
H           140.66      90.49       10.81       
