392

C           65.13       34.16       36.25       
N           66.15       34.99       36.17       
C           63.94       34.59       36.76       
C           66.03       36.25       36.61       
C           64.8        36.88       37.06       
C           65.06       38.32       37.18       
C           66.5        38.38       36.83       
N           66.99       37.19       36.46       
C           64.33       39.5        37.45       
C           62.89       39.46       37.83       
N           62.47       40.75       38.08       
C           63.48       41.66       37.82       
C           65.76       41.84       37.43       
C           64.67       40.92       37.56       
C           63.77       35.91       37.13       
O           62.14       38.49       37.91       
O           67.26       39.33       36.67       
C           61.12       41.09       38.5        
C           68.41       37.0        36.04       
H           68.8        37.72       35.37       
H           69.06185    36.81893    36.89464    
H           68.44       36.05       35.52       
H           60.65       41.79       37.77       
H           61.14092    41.45963    39.5252     
H           60.53       40.21       38.38       
H           66.5        43.76       37.7        
H           66.78       41.43       37.27       
H           62.83       36.18       37.47       
H           63.12       33.86       36.92       
C           65.54       43.22       37.71       
N           63.26       42.99       37.96       
C           64.3        43.85       37.87       
C           66.43       30.53       35.55       
C           65.09       30.5        35.3        
S           67.03       32.15       35.87       
H           63.53       32.05       35.2        
H           64.6        29.56       35.19       
C           64.52       31.85       35.37       
C           65.41       32.82       35.76       
C           73.21       21.83       33.94       
N           73.3        22.51       35.12       
C           72.3        22.17       32.92       
C           72.48       23.51       35.21       
C           71.53       24.01       34.28       
C           70.8        25.08       34.95       
C           71.34       25.18       36.33       
N           72.3        24.2        36.44       
C           69.73       25.94       34.66       
C           68.85       25.59       33.39       
N           67.87       26.53       33.41       
C           68.03       27.46       34.42       
C           69.42       28.14       36.16       
C           69.18       27.16       35.19       
C           71.42       23.26       33.12       
O           68.84       24.67       32.58       
O           70.87       25.8        37.28       
C           66.75       26.49       32.47       
C           72.97       23.84       37.79       
H           73.02       24.75       38.38       
H           72.5125     23.01792    38.34043    
H           74.0        23.49       37.59       
H           66.52       27.47       32.04       
H           65.90762    25.99028    32.9483     
H           67.0        25.94       31.63       
H           68.56       29.98       37.06       
H           70.32       28.11       36.76       
H           70.79       23.69       32.37       
H           72.39       21.59       32.01       
C           68.43       29.22       36.27       
N           67.14       28.38       34.56       
C           67.35       29.41       35.39       
C           76.19       19.28       33.43       
C           75.13       18.74       32.74       
S           75.69       20.78       34.26       
H           72.99       19.26       32.29       
H           75.25       17.92       32.13       
C           73.92       19.56       32.84       
C           74.04       20.65       33.69       
C           86.14       16.42       29.29       
N           85.99       17.55       29.98       
C           85.11       15.5        29.16       
C           84.79       17.8        30.51       
C           83.63       16.99       30.48       
C           82.52       17.74       31.15       
C           83.12       19.1        31.33       
N           84.42       19.13       30.83       
C           81.18       17.43       31.52       
C           80.59       16.0        31.54       
N           79.34       16.06       32.04       
C           78.97       17.31       32.46       
C           79.75       19.53       32.3        
C           80.05       18.2        32.04       
C           83.88       15.77       29.81       
O           81.15       14.94       31.33       
O           82.77       20.12       31.88       
C           78.64       14.85       32.6        
C           85.33       20.25       30.85       
H           86.32       20.01       30.94       
H           85.13425    20.92426    30.01624    
H           85.16       20.71       31.77       
H           78.14       15.09       33.55       
H           77.92029    14.44696    31.88749    
H           79.37       14.08       32.88       
H           78.15       20.82       32.97       
H           80.45       20.33       32.07       
H           83.09       15.08       29.76       
H           85.09       14.62       28.59       
C           78.48       19.81       32.8        
N           77.77       17.61       32.96       
C           77.57       18.88       33.2        
C           89.86       16.52       28.14       
C           89.35       15.36       27.64       
S           88.68       17.43       29.12       
H           87.36       14.44       27.47       
H           89.86       14.71       26.97       
C           87.96       15.22       27.95       
C           87.47       16.27       28.71       
C           99.52       21.27       25.73       
N           98.75       21.77       26.75       
C           99.33       20.01       25.31       
C           97.82       20.95       27.17       
C           97.35       19.72       26.66       
C           96.1        19.33       27.28       
C           95.9        20.48       28.31       
N           96.91       21.36       28.13       
C           95.18       18.26       27.06       
C           95.39       17.05       26.16       
N           94.24       16.24       26.22       
C           93.24       16.87       27.02       
C           92.87       18.93       28.18       
C           93.79       18.09       27.52       
C           98.29       19.23       25.73       
O           96.36       16.7        25.54       
O           95.03       20.58       29.14       
C           94.06       15.08       25.38       
C           97.06       22.59       28.99       
H           96.17       23.18       29.17       
H           97.46631    22.35477    29.9737     
H           97.58       23.31       28.32       
H           94.89       14.95       24.75       
H           93.83951    14.14981    25.90366    
H           93.15       15.27       24.74       
H           90.74       18.97       28.98       
H           93.04       19.89       28.59       
H           98.1        18.24       25.36       
H           100.12      19.64       24.63       
C           91.52       18.39       28.44       
N           92.04       16.43       27.12       
C           91.19       17.15       27.9        
C           102.16      24.17       24.99       
C           102.47      23.08       24.24       
S           100.69      23.79       25.84       
H           101.79      21.05       23.81       
H           103.31      23.03       23.53       
C           101.65      21.95       24.43       
C           100.61      22.14       25.28       
C           106.72      34.27       24.34       
N           105.47      34.12       24.85       
C           107.43      33.21       23.86       
C           105.05      32.81       24.91       
C           105.71      31.61       24.63       
C           104.88      30.49       24.92       
C           103.58      31.18       25.42       
N           103.78      32.57       25.34       
C           104.91      29.14       24.72       
C           105.92      28.47       23.75       
N           105.6       27.16       23.62       
C           104.47      26.85       24.32       
C           102.99      27.6        25.97       
C           104.09      27.97       25.11       
C           106.98      31.88       24.05       
O           106.84      28.92       23.17       
O           102.58      30.65       25.94       
C           106.55      26.22       23.01       
C           102.8       33.58       25.26       
H           102.01      33.13       24.72       
H           102.51958   33.91514    26.25857    
H           103.23      34.32       24.58       
H           106.07      25.36       22.67       
H           107.25812   25.7783     23.71111    
H           107.06      26.67       22.2        
H           101.53      26.02       26.61       
H           102.61      28.41       26.68       
H           107.65      31.08       23.75       
H           108.38      33.37       23.32       
C           102.35      26.37       25.92       
N           103.9       25.64       24.26       
C           102.75      25.44       24.98       
C           108.23      37.91       23.82       
C           106.99      37.84       23.27       
S           108.66      36.35       24.55       
H           105.35      36.37       23.15       
H           106.44      38.69       22.78       
C           106.34      36.59       23.57       
C           107.1       35.62       24.11       
C           115.46      46.31       23.59       
N           115.48      45.43       24.53       
C           114.43      46.24       22.71       
C           114.5       44.55       24.7        
C           113.36      44.38       23.83       
C           112.66      43.14       24.22       
C           113.5       42.57       25.36       
N           114.55      43.53       25.6        
C           111.53      42.47       23.7        
C           110.51      43.21       22.8        
N           109.43      42.42       22.66       
C           109.69      41.17       23.29       
C           111.32      39.98       24.45       
C           110.92      41.18       23.91       
C           113.3       45.45       22.9        
O           110.45      44.35       22.5        
O           113.35      41.58       26.07       
C           108.1       42.86       22.41       
C           115.25      43.58       26.82       
H           114.77      42.93       27.55       
H           116.30531   43.3072     26.82       
H           115.13      44.64       27.23       
H           107.92      43.84       22.79       
H           107.77562   42.67258    21.3864     
H           107.45      42.25       22.97       
H           110.66      38.0        25.03       
H           112.23      39.9        24.94       
H           112.57      45.39       22.08       
H           114.49      46.92       21.91       
C           110.38      38.91       24.46       
N           108.83      40.17       23.21       
C           109.19      39.01       23.84       
C           117.91      49.22       23.03       
C           118.24      48.61       24.14       
S           116.63      48.35       22.17       
H           117.59      46.96       25.44       
H           118.95      49.06       24.8        
C           117.53      47.44       24.48       
C           116.59      47.21       23.54       
C           119.88      59.13       18.56       
N           120.46      58.76       19.71       
C           118.83      58.36       17.97       
C           120.22      57.62       20.18       
C           119.22      56.74       19.67       
C           119.4       55.48       20.44       
C           120.49      55.82       21.45       
N           120.83      57.15       21.3        
C           118.73      54.19       20.44       
C           117.62      53.81       19.49       
N           117.15      52.6        19.78       
C           117.78      52.02       20.91       
C           119.61      52.41       22.37       
C           118.79      52.94       21.32       
C           118.47      57.2        18.58       
O           117.11      54.46       18.63       
O           120.86      55.24       22.42       
C           116.04      51.93       18.98       
C           122.01      57.73       21.96       
H           122.64      58.3        21.27       
H           121.69865   58.33097    22.8144     
H           122.66      56.93       22.2        
H           115.18      51.96       19.62       
H           116.11302   50.87845    18.70251    
H           115.94      52.61       18.09       
H           119.92      50.85       23.86       
H           120.51      52.94       22.7        
H           117.69      56.67       18.1        
H           118.3       58.71       17.09       
C           119.29      51.24       23.03       
N           117.48      50.81       21.42       
C           118.28      50.5        22.44       
C           120.69      62.82       17.51       
C           120.21      62.18       16.39       
S           120.58      61.81       18.84       
H           119.64      60.07       15.81       
H           120.13      62.76       15.48       
C           119.92      60.78       16.59       
C           120.12      60.4        17.93       
C           126.55      72.16       16.35       
N           126.47      71.57       17.55       
C           125.76      71.72       15.3        
C           125.78      70.41       17.64       
C           124.85      69.92       16.65       
C           124.3       68.64       17.18       
C           124.78      68.68       18.63       
N           125.71      69.65       18.8        
C           123.41      67.7        16.71       
C           122.67      67.81       15.35       
N           121.81      66.76       15.16       
C           121.87      65.89       16.27       
C           122.95      65.59       18.34       
C           122.84      66.43       17.23       
C           124.9       70.66       15.49       
O           122.69      68.71       14.53       
O           124.65      67.86       19.53       
C           120.78      66.71       14.09       
C           126.35      69.99       20.08       
H           125.72      69.58       20.84       
H           127.3956    69.70619    20.1995     
H           126.27      71.11       20.24       
H           119.83      66.32       14.51       
H           121.00451   65.95228    13.3393     
H           120.56      67.7        13.64       
H           122.31      63.83       19.28       
H           123.72      65.8        19.16       
H           124.25      70.41       14.72       
H           125.73      72.21       14.35       
C           122.07      64.52       18.5        
N           121.05      64.87       16.38       
C           121.18      64.16       17.51       
C           128.65      75.39       15.69       
C           128.33      75.42       17.01       
S           128.01      73.97       14.87       
H           127.31      74.05       18.38       
H           128.6       76.31       17.67       
C           127.62      74.23       17.38       
C           127.3       73.39       16.33       
C           135.88      81.76       10.41       
N           134.77      82.42       10.89       
C           136.03      80.4        10.51       
C           133.87      81.66       11.45       
C           133.95      80.22       11.59       
C           132.66      79.79       12.17       
C           131.87      81.1        12.51       
N           132.59      82.15       11.88       
C           131.98      78.57       12.48       
C           132.25      77.32       11.65       
N           131.41      76.38       12.05       
C           130.54      76.85       13.07       
C           130.37      78.56       14.71       
C           130.97      78.16       13.48       
C           135.1       79.6        11.17       
O           132.89      77.3        10.62       
O           130.84      81.23       13.12       
C           130.97      75.3        11.15       
C           132.09      83.42       11.54       
H           132.35      83.66       10.54       
H           132.51401   84.20546    12.16559    
H           131.04      83.45       11.74       
H           131.02      75.63       10.09       
H           131.51647   74.37464    11.33216    
H           129.91      75.14       11.25       
H           129.37      77.98       16.59       
H           130.52      79.54       15.05       
H           135.19      78.51       11.15       
H           136.88      79.91       10.07       
C           129.7       77.63       15.57       
N           129.71      76.13       13.71       
C           129.44      76.41       15.05       
C           137.91      84.25       8.17        
C           138.54      83.03       8.16        
S           136.52      84.19       9.16        
H           138.21      80.93       8.94        
H           139.47      82.83       7.63        
C           137.91      82.01       8.93        
C           136.83      82.52       9.56        
C           141.77      94.28       5.23        
N           142.56      93.15       5.3         
C           140.44      94.17       5.7         
C           142.05      92.05       5.82        
C           140.76      91.82       6.22        
C           140.61      90.41       6.44        
C           142.06      89.87       6.29        
N           142.83      90.93       5.91        
C           139.52      89.56       6.8         
C           138.1       90.07       7.15        
N           137.39      88.97       7.59        
C           138.13      87.84       7.48        
C           140.09      86.94       6.59        
C           139.37      88.1        6.89        
C           139.94      92.95       6.17        
O           137.71      91.17       7.32        
O           142.61      88.81       6.61        
C           136.06      89.05       8.26        
C           144.05      90.66       5.16        
H           143.96      91.15       4.24        
H           144.93496   90.92114    5.7403      
H           144.12      89.58       4.94        
H           136.03      88.51       9.15        
H           135.21187   88.77193    7.63433     
H           135.96      90.08       8.55        
H           140.29      84.87       6.92        
H           141.04      87.11       6.13        
H           138.95      92.86       6.53        
H           139.84      95.05       5.65        
C           139.67      85.68       7.05        
N           137.63      86.62       7.78        
C           138.43      85.51       7.67        
C           143.68      97.04       3.11        
C           142.58      97.63       3.69        
S           143.74      95.37       3.54        
H           141.01      97.15       5.08        
H           142.43      98.72       3.55        
C           141.85      96.75       4.49        
C           142.36      95.49       4.6         
H           64.28       44.73       38.53       
H           144.22      97.45       2.21        
