392

C           60.54       33.78       37.2        
N           61.01       35.02       37.26       
C           59.27       33.5        37.67       
C           60.23       36.01       37.68       
C           58.92       35.87       38.16       
C           58.44       37.21       38.53       
C           59.72       38.07       38.42       
N           60.77       37.29       37.83       
C           57.24       37.72       39.01       
C           55.94       36.93       39.06       
N           54.88       37.7        39.37       
C           55.35       38.88       39.91       
C           57.2        40.22       40.04       
C           56.75       38.98       39.65       
C           58.46       34.56       38.19       
O           55.74       35.77       38.69       
O           59.99       39.23       38.74       
C           53.5        37.43       38.97       
C           61.72       37.92       36.91       
H           61.33       38.9        36.64       
H           62.71186    37.97878    37.35817    
H           61.81       37.35       35.97       
H           52.88       38.29       38.97       
H           53.00811    36.77174    39.68613    
H           53.45       36.95       37.97       
H           56.86       42.04       40.98       
H           58.27       40.48       40.0        
H           57.59       34.31       38.73       
H           58.91       32.5        37.81       
C           56.37       41.22       40.56       
N           54.56       39.77       40.43       
C           55.01       41.0        40.8        
C           63.3        31.47       35.67       
C           62.22       30.66       35.95       
S           63.07       33.14       36.14       
H           60.15       31.06       36.58       
H           62.13       29.63       35.57       
C           61.15       31.45       36.39       
C           61.39       32.77       36.63       
C           72.55       27.95       30.47       
N           72.12       29.17       30.24       
C           71.8        27.11       31.21       
C           71.15       29.67       31.05       
C           70.27       28.89       31.84       
C           69.13       29.71       32.26       
C           69.58       31.13       31.82       
N           70.63       30.95       30.99       
C           67.89       29.56       32.84       
C           67.27       28.21       32.79       
N           66.04       28.33       33.32       
C           65.84       29.56       33.91       
C           66.81       31.73       34.06       
C           66.96       30.41       33.56       
C           70.68       27.57       31.92       
O           67.67       27.14       32.29       
O           68.99       32.19       31.79       
C           65.08       27.25       33.36       
C           70.88       31.82       29.86       
H           69.99       32.16       29.33       
H           71.59133    32.59534    30.14453    
H           71.53       31.31       29.11       
H           64.06       27.55       33.35       
H           65.19747    26.61427    34.23758    
H           65.34       26.6        32.54       
H           65.51       33.21       35.07       
H           67.67       32.4        34.05       
H           70.07       26.85       32.37       
H           72.01       26.06       31.26       
C           65.61       32.12       34.72       
N           64.78       29.91       34.63       
C           64.58       31.16       34.97       
C           75.74       27.28       28.35       
C           75.52       26.18       29.13       
S           74.43       28.41       28.54       
H           74.15       25.58       30.67       
H           76.3        25.4        29.24       
C           74.41       26.29       29.97       
C           73.74       27.49       29.8        
C           81.78       28.22       19.12       
N           82.23       27.56       20.19       
C           80.44       28.74       19.02       
C           81.35       27.5        21.12       
C           80.07       28.01       21.34       
C           79.61       27.68       22.72       
C           80.84       26.92       23.31       
N           81.75       26.9        22.28       
C           78.56       27.99       23.57       
C           77.76       29.22       23.31       
N           76.85       29.37       24.31       
C           77.1        28.41       25.25       
C           78.48       26.63       25.89       
C           78.18       27.58       24.93       
C           79.62       28.68       20.17       
O           77.83       29.88       22.32       
O           81.04       26.51       24.39       
C           76.14       30.56       24.58       
C           83.08       26.39       22.42       
H           83.61       26.2        21.47       
H           83.75617    27.04504    22.96939    
H           82.98       25.4        22.98       
H           76.73       31.47       24.21       
H           75.09046    30.57399    24.28613    
H           76.14       30.71       25.69       
H           77.91       25.7        27.67       
H           79.26       25.93       25.67       
H           78.64       29.12       20.11       
H           80.15       29.1        18.01       
C           77.72       26.56       27.06       
N           76.35       28.35       26.35       
C           76.71       27.48       27.32       
C           84.85       27.46       16.91       
C           84.03       28.31       16.16       
S           84.13       27.11       18.43       
H           82.11       29.35       16.45       
H           84.34       28.72       15.15       
C           82.87       28.74       16.84       
C           82.76       28.19       18.1        
C           94.82       22.68       15.38       
N           94.36       23.5        14.48       
C           94.03       22.3        16.44       
C           93.19       24.09       14.66       
C           92.3        23.87       15.71       
C           91.11       24.76       15.61       
C           91.5        25.65       14.41       
N           92.77       25.23       13.97       
C           89.89       24.86       16.26       
C           89.61       24.01       17.55       
N           88.34       24.37       18.02       
C           87.79       25.41       17.25       
C           88.13       26.62       15.37       
C           88.67       25.68       16.16       
C           92.83       22.91       16.61       
O           90.33       23.33       18.28       
O           90.87       26.41       13.82       
C           87.69       23.59       19.01       
C           93.34       25.67       12.76       
H           92.72       26.37       12.17       
H           94.31547    26.13281    12.90952    
H           93.48       24.82       12.05       
H           86.83       24.2        19.32       
H           87.27882    22.65613    18.6267     
H           88.34       23.37       19.88       
H           86.63       28.15       15.03       
H           88.75       26.9        14.5        
H           92.3        22.65       17.49       
H           94.22       21.46       17.06       
C           86.91       27.26       15.59       
N           86.58       25.88       17.48       
C           86.14       26.84       16.63       
C           98.62       22.04       14.51       
C           98.14       21.07       15.39       
S           97.3        23.07       14.09       
H           96.17       20.29       16.12       
H           98.71       20.21       15.72       
C           96.76       21.06       15.55       
C           96.18       22.22       15.11       
C           108.34      26.89       15.53       
N           107.93      26.76       14.21       
C           107.56      26.46       16.57       
C           106.75      26.1        14.0        
C           105.98      25.45       14.96       
C           104.79      24.81       14.34       
C           104.86      25.39       12.89       
N           106.09      25.92       12.75       
C           103.75      24.03       14.85       
C           103.96      23.23       16.17       
N           102.82      22.64       16.44       
C           101.97      22.74       15.36       
C           101.64      23.7        13.24       
C           102.49      23.52       14.32       
C           106.41      25.67       16.3        
O           104.85      23.16       16.96       
O           104.11      25.19       11.97       
C           102.47      21.73       17.64       
C           106.74      26.18       11.46       
H           107.27      27.12       11.35       
H           107.38903   25.35069    11.17875    
H           105.96      26.18       10.7        
H           101.97      20.79       17.34       
H           101.94634   22.3315     18.38303    
H           103.49      21.48       17.97       
H           99.58       23.52       12.57       
H           101.86      24.5        12.54       
H           105.88      25.2        17.12       
H           107.95      26.45       17.54       
C           100.35      23.22       13.3        
N           100.74      22.15       15.42       
C           99.95       22.45       14.36       
C           111.53      28.95       16.54       
C           111.51      28.8        15.15       
S           110.28      27.96       17.2        
H           110.06      27.98       13.58       
H           112.26      29.32       14.49       
C           110.33      28.13       14.62       
C           109.55      27.67       15.62       
C           117.87      36.05       22.09       
N           117.58      34.89       22.63       
C           117.63      36.25       20.81       
C           117.06      33.95       21.93       
C           116.72      33.99       20.56       
C           115.94      32.76       20.21       
C           115.73      32.1        21.57       
N           116.49      32.78       22.49       
C           115.44      32.3        18.98       
C           115.76      32.91       17.64       
N           115.06      32.23       16.68       
C           114.19      31.3        17.36       
C           113.49      30.35       19.34       
C           114.42      31.25       18.73       
C           117.03      35.27       20.03       
O           116.46      33.82       17.34       
O           115.34      30.94       21.83       
C           115.31      32.39       15.26       
C           116.89      32.2        23.74       
H           117.94      32.52       23.87       
H           116.28173   32.42448    24.6162     
H           116.89      31.12       23.59       
H           116.04      33.21       15.02       
H           115.58403   31.45973    14.76241    
H           114.45      32.87       14.84       
H           111.92      28.87       19.21       
H           113.44      30.27       20.43       
H           116.79      35.47       19.01       
H           117.91      37.19       20.33       
C           112.57      29.55       18.65       
N           113.32      30.58       16.68       
C           112.41      29.77       17.35       
C           120.33      38.69       23.83       
C           120.03      37.7        24.67       
S           119.54      38.42       22.34       
H           118.83      35.87       24.7        
H           120.39      37.65       25.66       
C           119.16      36.68       24.1        
C           118.72      36.93       22.86       
C           127.05      47.33       26.0        
N           126.44      46.59       26.97       
C           126.87      47.02       24.68       
C           125.57      45.69       26.62       
C           125.32      45.27       25.27       
C           124.35      44.09       25.36       
C           124.22      43.96       26.88       
N           125.12      44.69       27.51       
C           123.69      43.19       24.54       
C           123.59      43.49       23.03       
N           122.76      42.6        22.47       
C           122.31      41.67       23.36       
C           122.49      41.04       25.6        
C           122.84      41.99       24.66       
C           125.94      46.03       24.27       
O           124.05      44.44       22.37       
O           123.52      43.13       27.45       
C           122.69      42.43       21.03       
C           125.62      44.43       28.83       
H           124.98      43.89       29.48       
H           126.54035   43.84759    28.78686    
H           125.76      45.4        29.34       
H           121.64      42.19       20.85       
H           123.39636   41.70965    20.61737    
H           122.88      43.42       20.62       
H           121.38      39.36       26.13       
H           122.84      41.08       26.62       
H           125.92      45.74       23.25       
H           127.49      47.44       23.87       
C           121.74      40.0        25.35       
N           121.53      40.64       23.03       
C           121.24      39.77       24.06       
C           129.77      49.95       26.57       
C           129.56      49.31       27.78       
S           128.63      49.46       25.36       
H           128.17      47.72       28.57       
H           130.21      49.51       28.67       
C           128.46      48.41       27.8        
C           128.0       48.25       26.5        
C           137.09      56.85       22.04       
N           137.31      56.41       23.27       
C           135.84      56.7        21.44       
C           136.31      55.74       23.81       
C           135.01      55.44       23.28       
C           134.41      54.44       24.2        
C           135.41      54.32       25.29       
N           136.55      54.93       24.86       
C           133.22      53.68       24.18       
C           132.34      53.63       22.89       
N           131.32      52.81       23.18       
C           131.44      52.26       24.48       
C           132.72      52.37       26.44       
C           132.61      52.76       25.11       
C           134.77      56.0        21.98       
O           132.35      54.21       21.82       
O           135.46      53.61       26.29       
C           130.34      52.16       22.35       
C           137.76      55.02       25.63       
H           137.47      54.99       26.73       
H           138.4881    54.28476    25.28737    
H           138.02      56.07       25.67       
H           129.43      51.97       22.97       
H           130.68469   51.33275    21.72956    
H           130.04      52.88       21.63       
H           132.04      51.07       27.98       
H           133.48      52.88       27.01       
H           133.92      55.81       21.41       
H           135.71      57.05       20.41       
C           131.81      51.46       27.02       
N           130.56      51.44       24.97       
C           130.71      51.05       26.29       
C           139.71      58.89       19.9        
C           140.39      58.24       20.9        
S           137.99      58.65       20.04       
H           139.84      57.29       22.78       
H           141.47      58.28       21.01       
C           139.47      57.64       21.85       
C           138.18      57.54       21.38       
C           142.91      64.58       10.97       
N           143.68      63.59       11.44       
C           141.65      64.8        11.49       
C           143.17      62.86       12.44       
C           142.01      63.11       13.13       
C           141.83      62.14       14.24       
C           143.23      61.52       14.2        
N           143.91      62.0        13.08       
C           140.91      61.79       15.2        
C           139.48      62.26       15.2        
N           138.81      61.77       16.24       
C           139.67      60.97       16.98       
C           142.02      60.45       17.34       
C           141.02      61.07       16.48       
C           141.17      64.07       12.62       
O           139.01      63.02       14.41       
O           143.78      60.79       14.95       
C           137.7       62.5        16.73       
C           145.17      61.36       12.58       
H           145.75      62.23       12.24       
H           144.9284    60.66361    11.77702    
H           145.76      60.86       13.35       
H           137.6       63.4        16.24       
H           136.74892   61.99276    16.56796    
H           137.95      62.74       17.75       
H           142.32      59.21       19.08       
H           143.05      60.35       17.0        
H           140.18      64.39       12.94       
H           141.14      65.76       11.25       
C           141.6       59.72       18.43       
N           139.34      60.29       18.07       
C           140.29      59.76       18.86       
C           143.99      67.09       8.14        
C           144.89      66.09       8.21        
S           142.8       66.92       9.42        
H           145.26      64.18       9.31        
H           145.68      66.04       7.54        
C           144.7       65.16       9.26        
C           143.57      65.45       9.99        
C           143.23      75.08       0.57        
N           143.24      73.83       0.17        
C           143.26      75.43       1.9         
C           143.21      72.9        1.12        
C           143.26      73.08       2.46        
C           143.28      71.7        3.08        
C           143.33      70.78       1.9         
N           143.26      71.59       0.71        
C           143.24      71.25       4.38        
C           142.55      72.03       5.49        
N           142.48      71.29       6.62        
C           143.06      70.08       6.41        
C           144.2       68.78       4.74        
C           143.55      70.0        5.07        
C           143.33      74.43       2.87        
O           142.08      73.19       5.32        
O           143.19      69.58       1.88        
C           141.6       71.58       7.78        
C           142.82      71.04       -0.56       
H           142.37      71.87       -1.18       
H           143.62546   70.66825    -1.19335    
H           141.98      70.29       -0.49       
H           142.07      71.06       8.67        
H           140.57111   71.23931    7.66416     
H           141.68      72.66       7.89        
H           144.67      66.83       5.51        
H           144.6       68.54       3.8         
H           143.29      74.66       3.88        
H           143.26      76.47       2.2         
C           144.29      67.85       5.8         
N           143.16      69.21       7.39        
C           143.85      68.12       7.13        
C           142.54      77.23       -2.68       
C           142.67      78.13       -1.62       
S           142.58      75.57       -2.08       
H           143.21      78.03       0.5         
H           142.55      79.22       -1.69       
C           143.03      77.45       -0.41       
C           143.04      76.06       -0.51       
H           54.48       41.38       41.67       
H           142.6       77.56       -3.68       
