392

C           57.85       3.79        30.8        
N           58.57       4.82        30.42       
C           56.43       3.84        30.81       
C           57.98       5.97        30.06       
C           56.56       6.22        30.14       
C           56.32       7.62        29.66       
C           57.73       8.14        29.64       
N           58.64       7.08        29.77       
C           55.15       8.39        29.43       
C           53.73       7.84        29.36       
N           52.83       8.8         29.18       
C           53.43       10.01       28.96       
C           55.55       11.02       28.98       
C           54.84       9.84        29.11       
C           55.88       5.06        30.44       
O           53.33       6.68        29.47       
O           58.01       9.28        29.42       
C           51.41       8.55        28.99       
C           59.98       7.15        29.13       
H           60.2        8.07        28.52       
H           60.77141    7.16401     29.87939    
H           60.13       6.28        28.47       
H           51.06       8.93        28.06       
H           50.75553    8.92503     29.77684    
H           51.17       7.5         28.89       
H           55.43       13.13       28.56       
H           56.6        11.03       29.34       
H           54.81       5.08        30.21       
H           55.92       2.91        30.95       
C           54.88       12.24       28.67       
N           52.73       11.15       28.69       
C           53.47       12.27       28.41       
C           60.36       0.79        31.15       
C           59.3        0.52        31.94       
S           60.24       2.42        30.6        
H           57.38       1.66        32.56       
H           59.1        -0.45       32.44       
C           58.29       1.59        31.9        
C           58.63       2.63        31.13       
C           68.94       -5.91       29.89       
N           69.08       -4.64       29.47       
C           67.78       -6.4        30.33       
C           68.03       -3.91       29.72       
C           66.83       -4.21       30.42       
C           65.94       -3.0        30.42       
C           66.81       -2.0        29.67       
N           67.93       -2.63       29.25       
C           64.66       -2.74       30.99       
C           64.0        -3.56       32.05       
N           62.78       -2.99       32.36       
C           62.6        -1.93       31.5        
C           63.53       -0.59       29.89       
C           63.68       -1.72       30.71       
C           66.75       -5.57       30.75       
O           64.4        -4.68       32.47       
O           66.58       -0.85       29.32       
C           61.94       -3.51       33.42       
C           68.82       -2.04       28.28       
H           68.23       -1.31       27.72       
H           69.64492    -1.43745    28.66018    
H           69.21       -2.83       27.68       
H           61.01       -3.81       32.99       
H           61.92608    -2.79327    34.2411     
H           62.48       -4.3        33.93       
H           62.43       1.12        29.5        
H           64.26       -0.38       29.15       
H           65.89       -6.01       31.27       
H           67.64       -7.42       30.52       
C           62.46       0.23        30.02       
N           61.5        -1.26       31.6        
C           61.44       -0.09       30.91       
C           72.17       -7.59       28.39       
C           71.65       -8.46       29.27       
S           71.34       -6.08       28.4        
H           69.84       -8.52       30.62       
H           72.17       -9.45       29.47       
C           70.39       -8.02       29.85       
C           70.05       -6.73       29.48       
C           81.43       -6.4        22.23       
N           81.34       -7.51       23.03       
C           80.43       -5.41       22.23       
C           80.26       -7.51       23.85       
C           79.06       -6.69       23.76       
C           78.04       -7.25       24.68       
C           78.8        -8.41       25.29       
N           80.07       -8.48       24.75       
C           76.71       -6.91       25.0        
C           75.86       -6.02       24.09       
N           74.56       -6.06       24.57       
C           74.49       -6.85       25.77       
C           75.77       -8.09       27.28       
C           75.79       -7.38       26.08       
C           79.2        -5.57       22.87       
O           76.17       -5.44       23.08       
O           78.37       -9.19       26.15       
C           73.42       -5.58       23.8        
C           80.71       -9.85       24.66       
H           80.96       -10.11      23.66       
H           81.57504    -9.97868    25.31057    
H           79.92       -10.56      24.96       
H           72.61       -6.44       23.83       
H           73.0109     -4.64698    24.18756    
H           73.75       -5.42       22.81       
H           74.65       -8.8        28.93       
H           76.61       -8.6        27.57       
H           78.32       -4.95       22.58       
H           80.61       -4.53       21.55       
C           74.59       -8.31       27.96       
N           73.35       -6.97       26.48       
C           73.39       -7.67       27.61       
C           84.5        -6.82       19.76       
C           84.14       -5.52       19.82       
S           83.54       -7.71       20.9        
H           82.83       -4.11       20.85       
H           84.56       -4.76       19.13       
C           83.18       -5.17       20.8        
C           82.6        -6.28       21.43       
C           92.59       -12.2       14.19       
N           92.35       -10.87      14.05       
C           91.87       -12.88      15.17       
C           91.3        -10.28      14.61       
C           90.46       -10.85      15.6        
C           89.44       -9.89       15.98       
C           89.72       -8.72       15.13       
N           90.7        -9.07       14.24       
C           88.33       -9.84       16.8        
C           87.74       -11.09      17.43       
N           86.81       -10.71      18.33       
C           86.58       -9.31       18.28       
C           87.38       -7.38       17.35       
C           87.5        -8.75       17.37       
C           90.83       -12.21      15.91       
O           88.0        -12.26      17.23       
O           89.05       -7.71       14.89       
C           85.99       -11.59      19.1        
C           91.17       -8.18       13.24       
H           90.37       -7.6        12.74       
H           91.88776    -7.44774    13.60975    
H           91.52       -8.79       12.42       
H           85.74       -11.18      20.04       
H           85.0664     -11.88166   18.60001    
H           86.58       -12.51      19.29       
H           86.32       -5.57       17.92       
H           87.93       -6.82       16.65       
H           90.36       -12.67      16.78       
H           92.1        -13.89      15.49       
C           86.44       -6.66       18.11       
N           85.77       -8.66       19.14       
C           85.57       -7.37       18.94       
C           96.35       -12.65      13.62       
C           95.81       -13.79      13.2        
S           95.11       -11.49      13.96       
H           93.73       -14.64      13.01       
H           96.35       -14.68      12.9        
C           94.42       -13.78      13.29       
C           93.82       -12.6       13.64       
C           107.29      -12.29      14.82       
N           106.69      -11.2       14.37       
C           106.68      -13.51      15.09       
C           105.34      -11.21      14.21       
C           104.56      -12.35      14.4        
C           103.15      -11.9       14.02       
C           103.27      -10.36      13.82       
N           104.62      -10.08      13.82       
C           101.97      -12.63      13.87       
C           101.93      -14.11      13.73       
N           100.64      -14.46      13.35       
C           99.75       -13.38      13.46       
C           99.77       -11.13      14.17       
C           100.51      -12.24      13.91       
C           105.25      -13.53      14.87       
O           102.87      -14.87      13.7        
O           102.43      -9.51       13.49       
C           100.28      -15.88      13.34       
C           105.04      -8.71       13.81       
H           105.79      -8.61       14.58       
H           105.52035   -8.39212    12.88462    
H           104.26      -8.02       14.13       
H           99.48       -16.09      12.67       
H           100.01806   -16.32385   14.30046    
H           101.16      -16.36      12.91       
H           97.8        -10.41      14.29       
H           100.32      -10.25      14.36       
H           104.77      -14.46      15.09       
H           107.31      -14.35      15.58       
C           98.4        -11.24      14.1        
N           98.4        -13.51      13.4        
C           97.74       -12.42      13.76       
C           110.92      -11.89      16.31       
C           110.72      -10.93      15.3        
S           109.39      -12.6       16.64       
H           109.18      -10.59      13.65       
H           111.52      -10.2       15.04       
C           109.48      -11.13      14.58       
C           108.67      -12.05      15.14       
C           117.1       -10.69      25.75       
N           115.95      -11.34      25.75       
C           117.62      -10.32      24.51       
C           115.29      -11.5       24.59       
C           115.63      -11.04      23.31       
C           114.39      -11.32      22.47       
C           113.49      -12.15      23.29       
N           113.98      -12.09      24.58       
C           114.12      -11.09      21.11       
C           114.83      -9.96       20.35       
N           114.2       -9.78       19.12       
C           113.36      -10.82      18.8        
C           112.39      -12.75      19.77       
C           113.27      -11.66      19.98       
C           116.92      -10.52      23.3        
O           115.59      -9.17       20.88       
O           112.45      -12.75      22.98       
C           114.09      -8.45       18.42       
C           113.18      -12.54      25.72       
H           113.89      -12.97      26.39       
H           112.57709   -11.82621   26.28133    
H           112.64      -13.31      25.38       
H           113.81      -7.71       19.12       
H           114.94828   -8.16391    17.81205    
H           113.26      -8.57       17.69       
H           111.05      -13.75      18.57       
H           112.28      -13.34      20.66       
H           117.3       -10.08      22.42       
H           118.64      -9.91       24.53       
C           111.69      -12.87      18.59       
N           112.74      -10.99      17.61       
C           111.91      -12.04      17.43       
C           118.95      -9.29       28.81       
C           118.26      -10.38      29.29       
S           118.73      -8.99       27.12       
H           117.05      -11.97      28.34       
H           118.16      -10.63      30.34       
C           117.56      -11.04      28.22       
C           117.8       -10.5       27.01       
C           124.68      -0.91       33.07       
N           123.64      -1.5        33.75       
C           125.06      -1.36       31.78       
C           123.07      -2.51       33.2        
C           123.32      -3.01       31.91       
C           122.32      -4.14       31.75       
C           121.67      -4.23       33.15       
N           122.12      -3.2        33.91       
C           121.92      -4.93       30.68       
C           122.38      -4.74       29.2        
N           121.74      -5.64       28.42       
C           121.15      -6.58       29.17       
C           120.55      -7.1        31.38       
C           121.14      -6.19       30.54       
C           124.33      -2.37       31.16       
O           123.26      -4.02       28.75       
O           120.82      -5.02       33.55       
C           121.73      -5.45       26.96       
C           121.86      -2.98       35.3        
H           120.83      -3.0        35.42       
H           122.44875   -3.68933    35.88165    
H           122.12      -1.99       35.59       
H           120.78      -5.72       26.49       
H           122.49046   -5.9911     26.39696    
H           121.87      -4.38       26.84       
H           119.32      -8.75       31.57       
H           120.58      -7.07       32.48       
H           124.62      -2.71       30.22       
H           126.03      -1.02       31.32       
C           119.84      -8.16       30.82       
N           120.43      -7.6        28.65       
C           119.69      -8.32       29.49       
C           126.38      2.39        34.01       
C           125.58      2.14        35.02       
S           126.26      1.23        32.77       
H           124.22      0.52        35.64       
H           125.33      2.86        35.79       
C           124.95      0.89        34.91       
C           125.23      0.27        33.7        
C           132.28      11.21       30.56       
N           131.68      11.19       31.74       
C           132.29      10.02       29.79       
C           130.85      10.12       32.03       
C           130.63      8.98        31.26       
C           129.62      8.15        31.89       
C           129.2       8.92        33.16       
N           130.0       9.99        33.15       
C           129.21      6.78        31.8        
C           129.71      5.83        30.68       
N           129.32      4.55        31.0        
C           128.43      4.64        32.09       
C           127.73      5.87        33.97       
C           128.45      5.91        32.73       
C           131.44      8.91        30.12       
O           130.33      6.16        29.74       
O           128.39      8.77        33.98       
C           129.43      3.41        30.07       
C           129.63      11.18       33.89       
H           128.53      11.16       34.2        
H           130.15336   11.3348     34.83352    
H           129.67      12.04       33.2        
H           128.46      2.97        29.89       
H           130.19356   2.68926     30.36258    
H           129.68      3.87        29.11       
H           126.54      4.79        35.3        
H           127.66      6.72        34.55       
H           131.3       8.17        29.39       
H           132.79      10.0        28.82       
C           127.11      4.72        34.4        
N           127.85      3.47        32.43       
C           127.13      3.57        33.57       
C           134.75      13.82       29.09       
C           134.6       14.11       30.42       
S           133.84      12.45       28.64       
H           133.36      13.24       32.05       
H           135.05      14.96       30.93       
C           133.57      13.28       31.06       
C           133.16      12.28       30.23       
C           139.89      19.47       21.19       
N           140.17      19.73       22.5        
C           139.2       18.37       20.81       
C           139.7       18.93       23.46       
C           138.85      17.81       23.21       
C           138.5       17.27       24.55       
C           139.34      18.15       25.51       
N           139.97      19.12       24.81       
C           137.56      16.33       25.0        
C           136.48      15.76       24.04       
N           135.68      14.93       24.83       
C           136.05      14.95       26.09       
C           137.36      16.13       27.69       
C           137.12      15.91       26.32       
C           138.62      17.55       21.82       
O           136.12      16.15       22.96       
O           139.5       18.09       26.69       
C           134.82      13.9        24.27       
C           140.63      20.28       25.39       
H           140.34      21.18       24.87       
H           141.71203   20.20221    25.28392    
H           140.35      20.36       26.43       
H           134.92      12.93       24.88       
H           133.74961   14.09527    24.33509    
H           135.18      13.76       23.21       
H           136.86      15.63       29.61       
H           138.15      16.71       28.16       
H           137.96      16.68       21.42       
H           139.03      18.09       19.77       
C           136.58      15.46       28.58       
N           135.38      14.21       26.96       
C           135.64      14.52       28.21       
C           140.91      22.14       18.54       
C           141.34      22.55       19.79       
S           140.12      20.59       18.65       
H           141.31      21.88       21.77       
H           141.74      23.54       19.97       
C           141.13      21.57       20.78       
C           140.46      20.45       20.35       
C           141.92      29.42       10.19       
N           140.97      28.49       10.1        
C           142.46      29.79       11.45       
C           140.9       27.66       11.17       
C           141.54      27.79       12.46       
C           141.18      26.65       13.28       
C           140.21      25.84       12.37       
N           140.05      26.56       11.18       
C           141.36      26.18       14.57       
C           142.16      27.03       15.52       
N           142.31      26.26       16.7        
C           141.59      25.02       16.57       
C           140.46      23.63       15.1        
C           141.02      24.87       15.27       
C           142.33      28.98       12.61       
O           142.62      28.13       15.43       
O           139.51      24.83       12.48       
C           143.18      26.59       17.78       
C           139.04      26.3        10.17       
H           138.68      27.3        9.82        
H           139.49476   25.82518    9.30061     
H           138.18      25.73       10.52       
H           143.63      25.64       18.17       
H           142.70116   27.13316    18.59474    
H           144.06      27.23       17.44       
H           139.76      21.85       15.98       
H           140.01      23.31       14.18       
H           142.81      29.27       13.55       
H           143.12      30.66       11.53       
C           140.35      22.78       16.16       
N           141.64      24.17       17.55       
C           140.97      22.99       17.38       
C           143.13      31.36       6.92        
C           142.02      30.65       6.65        
S           143.46      31.23       8.64        
H           140.55      29.39       7.61        
H           141.56      30.65       5.71        
C           141.48      29.92       7.75        
C           142.22      30.06       8.9         
H           53.05       13.09       27.92       
H           143.52      32.05       6.25        
