392

C           63.37       39.96       16.35       
N           64.32       40.89       16.41       
C           62.15       40.23       15.87       
C           64.05       42.11       16.06       
C           62.85       42.54       15.51       
C           62.99       43.97       15.14       
C           64.43       44.29       15.63       
N           65.0        43.14       16.13       
C           62.09       44.91       14.61       
C           60.71       44.53       13.97       
N           60.1        45.75       13.66       
C           60.84       46.84       14.11       
C           62.92       47.44       15.0        
C           62.07       46.42       14.58       
C           61.9        41.54       15.51       
O           60.18       43.52       13.6        
O           65.11       45.31       15.49       
C           58.75       45.87       13.16       
C           66.14       42.94       16.91       
H           65.75       42.46       17.87       
H           66.98284    42.39216    16.48858    
H           66.48       43.9        17.13       
H           58.79       46.64       12.31       
H           58.04984    46.05576    13.97447    
H           58.39       44.9        12.74       
H           63.18       49.55       15.15       
H           63.92       47.24       15.31       
H           60.94       41.77       15.19       
H           61.31       39.45       15.83       
C           62.45       48.75       14.93       
N           60.42       48.05       14.13       
C           61.23       49.07       14.51       
C           65.47       36.81       16.56       
C           64.2        36.27       16.48       
S           65.57       38.5        16.74       
H           62.19       37.16       16.11       
H           64.01       35.18       16.45       
C           63.25       37.35       16.31       
C           63.85       38.58       16.43       
C           74.13       30.21       16.13       
N           74.02       31.15       15.12       
C           73.38       30.21       17.28       
C           73.0        32.0        15.33       
C           72.09       32.01       16.39       
C           71.1        33.02       16.11       
C           71.62       33.73       14.88       
N           72.8        33.08       14.51       
C           69.81       33.35       16.6        
C           69.09       32.29       17.34       
N           67.81       32.82       17.64       
C           67.71       34.1        17.15       
C           68.84       35.64       15.78       
C           68.86       34.41       16.39       
C           72.3        31.07       17.39       
O           69.43       31.2        17.69       
O           71.14       34.69       14.2        
C           66.94       32.15       18.55       
C           73.86       33.64       13.7        
H           73.33       34.17       12.93       
H           74.56927    34.23579    14.27451    
H           74.37       32.81       13.17       
H           65.92       32.25       18.17       
H           67.00965    32.60275    19.53908    
H           67.19       31.08       18.5        
H           67.75       37.46       15.48       
H           69.63       35.97       15.12       
H           71.66       31.0        18.28       
H           73.55       29.4        18.04       
C           67.81       36.51       15.98       
N           66.62       34.82       17.24       
C           66.7        36.02       16.65       
C           77.16       28.03       15.06       
C           76.75       27.57       16.28       
S           76.27       29.45       14.56       
H           75.11       28.04       17.62       
H           77.1        26.65       16.76       
C           75.59       28.34       16.72       
C           75.24       29.33       15.94       
C           86.18       26.68       8.73        
N           85.97       25.82       9.71        
C           85.18       27.58       8.35        
C           84.8        25.95       10.32       
C           83.72       26.86       10.06       
C           82.68       26.54       11.06       
C           83.23       25.31       11.79       
N           84.51       25.01       11.31       
C           81.43       27.16       11.42       
C           81.0        28.52       10.79       
N           79.88       28.94       11.39       
C           79.54       28.1        12.49       
C           80.22       26.21       13.64       
C           80.45       27.05       12.59       
C           84.01       27.74       9.04        
O           81.58       29.29       10.07       
O           82.75       24.69       12.76       
C           79.36       30.3        11.13       
C           85.11       23.64       11.35       
H           85.42       23.3        10.3        
H           85.931      23.5979     12.06574    
H           84.3        22.96       11.61       
H           80.14       30.97       10.93       
H           78.57854    30.31447    10.37025    
H           78.88       30.46       12.1        
H           78.87       25.66       15.25       
H           80.79       25.35       13.87       
H           83.26       28.4        8.68        
H           85.23       28.23       7.45        
C           79.0        26.34       14.39       
N           78.55       28.44       13.3        
C           78.26       27.53       14.26       
C           89.78       26.02       7.48        
C           89.31       27.05       6.73        
S           88.6        25.45       8.55        
H           87.47       28.14       6.48        
H           89.89       27.54       6.02        
C           88.03       27.45       7.11        
C           87.49       26.71       8.15        
C           99.79       23.24       10.83       
N           99.62       24.13       9.84        
C           98.7        22.58       11.42       
C           98.38       24.39       9.47        
C           97.19       23.79       9.93        
C           96.14       24.32       9.1         
C           96.82       25.19       8.06        
N           98.18       25.18       8.38        
C           94.8        24.01       8.88        
C           94.2        22.66       9.41        
N           92.82       22.7        9.07        
C           92.51       23.91       8.45        
C           93.49       25.82       7.43        
C           93.68       24.66       8.2         
C           97.38       22.82       10.97       
O           94.74       21.83       10.07       
O           96.42       25.71       7.07        
C           91.93       21.69       9.64        
C           99.18       25.97       7.74        
H           98.85       26.34       6.75        
H           99.50713    26.79493    8.37292     
H           100.02      25.36       7.44        
H           91.04       22.16       10.0        
H           91.70482    20.84738    8.98625     
H           92.42       21.27       10.52       
H           92.02       27.08       6.46        
H           94.35       26.36       7.02        
H           96.63       22.22       11.43       
H           98.78       21.84       12.24       
C           92.22       26.18       7.04        
N           91.24       24.34       8.23        
C           91.1        25.51       7.54        
C           103.38      23.52       12.27       
C           102.92      22.32       12.75       
S           102.32      24.16       11.05       
H           101.0       21.23       12.71       
H           103.36      21.76       13.55       
C           101.58      22.04       12.29       
C           101.12      22.96       11.43       
C           111.52      28.77       17.34       
N           111.42      28.83       16.02       
C           110.67      28.05       18.12       
C           110.53      28.16       15.39       
C           109.65      27.3        16.0        
C           108.71      26.79       14.95       
C           109.24      27.54       13.69       
N           110.28      28.29       14.05       
C           107.64      25.89       14.93       
C           107.4       25.06       16.14       
N           106.4       24.15       15.7        
C           105.93      24.52       14.49       
C           106.23      26.0        12.67       
C           106.63      25.59       13.94       
C           109.78      27.24       17.44       
O           108.14      24.78       17.19       
O           108.84      27.6        12.57       
C           105.78      23.1        16.51       
C           110.93      29.19       13.2        
H           111.12      30.0        13.88       
H           111.79585   28.74668    12.7082     
H           110.26      29.48       12.41       
H           105.79      22.1        16.02       
H           104.8228    23.37948    16.95017    
H           106.43      22.99       17.44       
H           104.74      25.78       11.1        
H           106.69      26.84       12.15       
H           109.14      26.69       18.15       
H           110.68      28.1        19.19       
C           105.13      25.31       12.03       
N           104.89      23.95       13.95       
C           104.45      24.32       12.76       
C           113.8       31.66       18.95       
C           114.33      31.28       17.78       
S           112.49      30.62       19.32       
H           113.87      29.97       16.06       
H           115.27      31.65       17.33       
C           113.57      30.29       17.08       
C           112.52      29.79       17.79       
C           118.23      37.19       27.55       
N           116.92      36.91       27.48       
C           119.03      36.83       26.47       
C           116.46      36.38       26.34       
C           117.16      35.97       25.22       
C           116.2       35.38       24.18       
C           114.88      35.64       24.95       
N           115.1       36.21       26.17       
C           116.33      34.7        23.01       
C           117.62      34.5        22.3        
N           117.45      33.69       21.27       
C           116.12      33.37       21.07       
C           114.03      33.65       22.13       
C           115.39      33.97       22.12       
C           118.53      36.27       25.28       
O           118.75      34.87       22.61       
O           113.74      35.42       24.59       
C           118.57      32.9        20.73       
C           114.09      36.91       26.9        
H           113.65      37.6        26.16       
H           113.42507   36.21648    27.41478    
H           114.53      37.57       27.62       
H           119.41      33.57       20.64       
H           118.81845   32.02689    21.33337    
H           118.27      32.62       19.72       
H           112.49      32.64       21.04       
H           113.39      33.94       22.93       
H           119.26      36.01       24.44       
H           120.17      37.09       26.44       
C           113.57      32.84       21.1        
N           115.69      32.74       19.97       
C           114.38      32.5        20.01       
C           120.3       38.88       30.3        
C           119.26      38.23       30.91       
S           120.2       38.71       28.59       
H           117.56      36.84       30.37       
H           119.22      38.01       31.94       
C           118.36      37.56       30.03       
C           118.81      37.77       28.72       
C           130.11      43.77       32.3        
N           129.57      42.87       33.15       
C           129.36      44.12       31.2        
C           128.45      42.27       32.8        
C           127.68      42.39       31.6        
C           126.49      41.47       31.68       
C           126.83      40.64       32.94       
N           128.02      41.17       33.51       
C           125.35      41.27       30.93       
C           125.02      42.06       29.59       
N           123.82      41.55       29.11       
C           123.35      40.67       29.99       
C           123.52      39.57       32.09       
C           124.15      40.45       31.18       
C           128.15      43.41       30.81       
O           125.64      42.9        29.03       
O           126.28      39.77       33.56       
C           123.3       41.88       27.81       
C           128.58      40.63       34.72       
H           127.8       40.52       35.54       
H           129.21566   39.76579    34.52716    
H           129.24      41.47       35.13       
H           122.25      41.89       27.87       
H           123.75081   41.31285    26.99563    
H           123.5       42.97       27.6        
H           121.8       38.46       32.64       
H           123.9       39.31       33.04       
H           127.57      43.69       29.93       
H           129.65      44.99       30.62       
C           122.21      39.08       31.87       
N           122.21      40.09       29.72       
C           121.55      39.45       30.69       
C           133.25      46.15       32.87       
C           133.16      45.35       33.95       
S           131.89      45.89       31.83       
H           131.77      43.8        34.71       
H           133.89      45.41       34.73       
C           132.09      44.45       33.89       
C           131.35      44.51       32.7        
C           140.6       53.62       29.53       
N           140.85      52.93       30.6        
C           139.54      53.31       28.63       
C           140.04      51.97       30.83       
C           138.85      51.53       30.14       
C           138.13      50.56       30.99       
C           139.11      50.27       32.07       
N           140.15      51.21       31.97       
C           136.92      49.9        30.87       
C           136.09      49.89       29.55       
N           135.1       48.93       29.68       
C           135.12      48.48       30.97       
C           136.11      48.63       33.11       
C           136.13      49.04       31.77       
C           138.61      52.34       28.98       
O           136.4       50.35       28.56       
O           139.07      49.5        33.07       
C           134.18      48.51       28.69       
C           141.01      51.53       33.12       
H           140.47      51.16       34.06       
H           141.98815   51.05164    33.07002    
H           141.14      52.58       33.19       
H           133.23      48.31       29.2        
H           134.56068   47.69119    28.07948    
H           134.04      49.4        28.05       
H           135.15      47.25       34.47       
H           136.87      48.94       33.82       
H           137.69      52.29       28.37       
H           139.35      53.92       27.76       
C           135.14      47.69       33.53       
N           134.2       47.6        31.34       
C           134.2       47.2        32.61       
C           142.47      56.97       28.53       
C           143.42      56.23       29.16       
S           140.92      56.2        28.43       
H           143.37      54.21       30.13       
H           144.42      56.58       29.37       
C           142.84      54.93       29.6        
C           141.55      54.71       29.18       
C           142.95      67.17       24.08       
N           143.84      66.69       24.93       
C           141.76      66.47       23.82       
C           143.78      65.4        25.23       
C           142.63      64.58       25.12       
C           143.03      63.29       25.82       
C           144.5       63.47       26.24       
N           144.83      64.81       25.89       
C           142.34      62.08       26.09       
C           140.86      61.94       25.79       
N           140.51      60.66       26.19       
C           141.6       59.95       26.7        
C           143.83      60.32       27.54       
C           142.72      60.81       26.73       
C           141.63      65.2        24.4        
O           140.08      62.69       25.35       
O           145.37      62.8        26.7        
C           139.32      60.04       25.55       
C           146.11      65.46       26.28       
H           146.18      66.57       26.23       
H           146.91709   64.97858    25.72778    
H           146.2       65.18       27.3        
H           139.51      59.03       25.22       
H           138.47113   59.89388    26.21796    
H           139.03      60.55       24.59       
H           144.57      58.7        28.74       
H           144.71      60.9        27.76       
H           140.69      64.66       24.28       
H           141.03      66.84       23.07       
C           143.78      59.02       28.1        
N           141.55      58.75       27.23       
C           142.65      58.28       27.94       
C           143.24      70.49       22.11       
C           143.82      70.68       23.33       
S           142.57      68.83       21.93       
H           144.1       69.42       25.23       
H           144.34      71.65       23.62       
C           143.72      69.49       24.16       
C           143.04      68.47       23.56       
C           141.18      77.95       14.25       
N           140.88      76.73       13.93       
C           141.93      78.34       15.3        
C           141.2       75.91       14.92       
C           141.98      76.08       16.03       
C           142.01      74.88       16.86       
C           141.3       73.87       15.93       
N           140.89      74.55       14.82       
C           142.58      74.48       18.12       
C           143.49      75.4        18.91       
N           143.95      74.74       20.07       
C           143.39      73.49       20.12       
C           142.16      71.93       18.8        
C           142.6       73.26       18.93       
C           142.38      77.42       16.22       
O           143.91      76.45       18.72       
O           141.21      72.63       16.01       
C           144.48      75.48       21.13       
C           140.17      73.89       13.74       
H           139.28      74.47       13.59       
H           140.77099   73.85423    12.83136    
H           139.7       72.85       13.95       
H           145.3       74.89       21.44       
H           143.77542   75.84319    21.87817    
H           145.15      76.29       20.88       
H           142.01      69.98       19.72       
H           141.56      71.59       17.99       
H           142.97      77.71       17.08       
H           142.18      79.4        15.44       
C           142.44      71.02       19.86       
N           143.74      72.58       21.09       
C           143.09      71.39       20.98       
C           140.53      80.83       11.61       
C           139.7       79.75       11.41       
S           141.37      80.51       13.09       
H           139.09      77.81       12.23       
H           139.05      79.7        10.52       
C           139.74      78.72       12.33       
C           140.77      78.91       13.27       
H           61.12       50.04       14.09       
H           140.33      81.85       11.26       
