392

C           63.85       11.65       37.28       
N           65.05       12.0        36.97       
C           63.11       12.39       38.24       
C           65.45       13.2        37.43       
C           64.93       13.95       38.48       
C           65.9        15.05       38.82       
C           66.93       14.9        37.74       
N           66.68       13.71       37.05       
C           66.02       16.01       39.86       
C           65.19       15.98       41.19       
N           65.51       17.12       41.94       
C           66.52       17.84       41.28       
C           68.08       17.8        39.4        
C           66.91       17.24       40.05       
C           63.67       13.43       38.9        
O           64.39       15.22       41.55       
O           67.95       15.53       37.47       
C           64.8        17.5        43.14       
C           67.74       12.88       36.48       
H           67.73       11.92       36.96       
H           67.65695    12.75542    35.40033    
H           68.67       13.29       36.76       
H           64.39       18.51       43.06       
H           65.39914    17.40728    44.04584    
H           64.01       16.82       43.38       
H           69.52       19.42       39.56       
H           68.42       17.42       38.41       
H           63.16       13.94       39.72       
H           62.14       12.08       38.62       
C           68.65       18.98       39.97       
N           67.09       18.96       41.75       
C           68.03       19.6        41.1        
C           63.38       8.16        35.61       
C           62.18       8.63        36.08       
S           64.67       9.22        36.06       
H           61.39       10.51       37.0        
H           61.27       8.06        35.96       
C           62.28       9.92        36.67       
C           63.5        10.43       36.64       
C           63.79       -2.89       33.74       
N           64.82       -2.1        33.41       
C           62.64       -2.34       34.3        
C           64.74       -0.82       33.68       
C           63.72       -0.1        34.33       
C           64.09       1.34        34.46       
C           65.5        1.31        33.82       
N           65.79       0.01        33.5        
C           63.44       2.56        34.71       
C           61.88       2.65        34.65       
N           61.53       3.97        34.77       
C           62.64       4.72        35.04       
C           64.96       4.8         35.09       
C           63.87       3.99        34.83       
C           62.59       -0.94       34.66       
O           61.07       1.73        34.43       
O           66.26       2.17        33.73       
C           60.22       4.36        35.1        
C           66.99       -0.39       32.72       
H           67.48       0.38        32.11       
H           67.73149    -0.82491    33.39019    
H           66.64       -0.99       31.92       
H           60.15       5.49        35.0        
H           59.90834    4.10501     36.11289    
H           59.51       3.81        34.46       
H           65.7        6.79        35.59       
H           66.0        4.46        34.96       
H           61.73       -0.6        35.18       
H           61.74       -2.91       34.48       
C           64.83       6.17        35.32       
N           62.52       6.03        35.23       
C           63.61       6.79        35.29       
C           64.3        -6.26       31.92       
C           63.07       -6.29       32.57       
S           65.04       -4.73       32.11       
H           62.08       -5.13       34.07       
H           62.5        -7.21       32.68       
C           62.88       -5.16       33.31       
C           63.79       -4.21       33.14       
C           71.83       -12.57      26.91       
N           70.7        -13.24      27.31       
C           71.88       -11.2       26.91       
C           69.72       -12.51      27.74       
C           69.66       -11.06      27.87       
C           68.36       -10.63      28.42       
C           67.67       -11.98      28.66       
N           68.52       -12.99      28.27       
C           67.8        -9.38       28.73       
C           68.39       -8.07       28.25       
N           67.68       -6.99       28.88       
C           66.73       -7.48       29.68       
C           65.76       -9.46       30.51       
C           66.69       -8.94       29.61       
C           70.81       -10.45      27.38       
O           69.21       -7.86       27.38       
O           66.49       -12.15      29.0        
C           68.18       -5.65       28.92       
C           68.02       -14.33      28.04       
H           68.33       -14.58      27.07       
H           68.34818    -15.05057   28.78911    
H           66.97       -14.2       27.91       
H           69.23       -5.63       28.82       
H           67.67821    -5.05064    28.16035    
H           68.09       -5.22       29.92       
H           64.12       -9.07       31.85       
H           65.74       -10.6       30.6        
H           71.01       -9.34       27.47       
H           72.75       -10.64      26.57       
C           64.87       -8.63       31.2        
N           65.99       -6.63       30.44       
C           65.01       -7.22       31.1        
C           74.95       -14.22      25.35       
C           74.19       -15.24      25.83       
S           73.99       -12.8       25.27       
H           72.18       -15.37      26.88       
H           74.37       -16.32      25.61       
C           72.97       -14.78      26.39       
C           72.83       -13.44      26.36       
C           85.06       -15.57      20.83       
N           84.69       -14.37      21.29       
C           84.1        -16.54      20.72       
C           83.51       -14.32      22.01       
C           82.49       -15.35      21.93       
C           81.33       -14.86      22.69       
C           81.84       -13.58      23.26       
N           83.09       -13.31      22.86       
C           80.05       -15.34      23.02       
C           79.55       -16.73      22.87       
N           78.16       -16.83      23.22       
C           77.77       -15.64      23.75       
C           78.42       -13.4       23.95       
C           78.79       -14.69      23.65       
C           82.82       -16.47      21.25       
O           80.17       -17.69      22.58       
O           81.44       -12.88      24.18       
C           77.42       -18.12      23.2        
C           83.62       -11.97      23.02       
H           82.84       -11.31      23.21       
H           84.41203    -11.87968   23.76339    
H           84.0        -11.68      22.05       
H           76.91       -18.19      24.15       
H           76.8317     -18.27443   22.29548    
H           78.17       -18.89      23.25       
H           76.92       -12.09      24.77       
H           79.09       -12.63      23.87       
H           82.05       -17.3       21.12       
H           84.37       -17.51      20.3        
C           77.13       -13.16      24.5        
N           76.59       -15.48      24.3        
C           76.23       -14.24      24.66       
C           88.97       -15.51      20.41       
C           88.51       -16.79      20.19       
S           87.56       -14.51      20.63       
H           86.67       -17.95      20.14       
H           89.18       -17.67      20.15       
C           87.08       -16.95      20.2        
C           86.41       -15.76      20.44       
C           99.43       -11.89      20.74       
N           98.41       -11.09      21.08       
C           99.19       -13.19      20.36       
C           97.26       -11.62      21.33       
C           96.88       -13.01      21.15       
C           95.4        -13.1       21.31       
C           95.05       -11.73      21.8        
N           96.14       -10.95      21.75       
C           94.48       -14.2       21.23       
C           94.97       -15.63      21.13       
N           93.77       -16.31      20.98       
C           92.55       -15.55      21.01       
C           92.01       -13.25      20.91       
C           93.03       -14.21      21.08       
C           97.97       -13.76      20.71       
O           96.02       -16.23      21.04       
O           93.98       -11.39      22.29       
C           93.74       -17.73      20.72       
C           96.06       -9.51       21.9        
H           95.34       -9.11       21.25       
H           95.83074    -9.10706    22.8865     
H           96.95       -9.13       21.41       
H           93.01       -17.97      20.04       
H           93.58083    -18.29433   21.63885    
H           94.68       -17.92      20.22       
H           89.88       -13.04      20.7        
H           92.23       -12.25      20.93       
H           97.86       -14.8       20.39       
H           99.9        -13.77      19.76       
C           90.69       -13.76      20.8        
N           91.35       -16.03      20.72       
C           90.36       -15.11      20.68       
C           103.04      -10.75      19.83       
C           102.28      -9.64       19.93       
S           102.17      -12.18      20.38       
H           100.05      -9.28       20.08       
H           102.61      -8.66       19.61       
C           100.89      -9.98       20.1        
C           100.67      -11.29      20.37       
C           114.03      -10.42      19.17       
N           113.46      -11.5       19.69       
C           113.27      -9.52       18.42       
C           112.13      -11.6       19.65       
C           111.26      -10.68      19.06       
C           109.89      -11.11      19.37       
C           110.06      -12.48      20.06       
N           111.4       -12.67      20.23       
C           108.65      -10.53      19.08       
C           108.5       -9.16       18.35       
N           107.14      -8.88       18.25       
C           106.47      -9.9        18.85       
C           106.6       -11.91      20.02       
C           107.29      -10.92      19.41       
C           111.92      -9.6        18.37       
O           109.34      -8.36       17.91       
O           109.21      -13.43      20.19       
C           106.72      -7.5        18.49       
C           112.03      -13.62      21.05       
H           113.07      -13.87      20.81       
H           112.0371    -13.38581   22.11452    
H           111.49      -14.56      20.94       
H           105.65      -7.47       18.38       
H           106.99173   -7.11812    19.47409    
H           107.21      -6.89       17.74       
H           104.73      -12.5       20.87       
H           107.1       -12.73      20.35       
H           111.42      -8.81       17.87       
H           113.75      -8.61       18.04       
C           105.23      -11.89      20.13       
N           105.13      -9.83       18.85       
C           104.47      -10.86      19.55       
C           117.85      -9.52       19.36       
C           117.6       -10.77      19.81       
S           116.23      -8.85       18.98       
H           116.02      -12.28      19.95       
H           118.44      -11.37      20.23       
C           116.33      -11.27      19.68       
C           115.44      -10.33      19.26       
C           127.49      -4.71       18.21       
N           127.4       -5.63       19.18       
C           126.35      -4.24       17.56       
C           126.18      -6.03       19.46       
C           124.94      -5.59       18.88       
C           123.77      -6.26       19.43       
C           124.45      -7.2        20.45       
N           125.83      -6.95       20.44       
C           122.44      -6.39       19.09       
C           121.74      -5.52       18.1        
N           120.45      -5.94       18.02       
C           120.19      -7.03       18.85       
C           121.11      -8.29       20.61       
C           121.34      -7.27       19.56       
C           125.09      -4.72       17.78       
O           122.23      -4.66       17.39       
O           123.87      -7.98       21.25       
C           119.64      -5.64       16.88       
C           126.88      -7.67       21.21       
H           126.55      -8.14       22.17       
H           127.31403   -8.48018    20.62406    
H           127.71      -6.94       21.36       
H           118.59      -5.7        17.16       
H           119.81179   -6.30653    16.03482    
H           119.85      -4.61       16.58       
H           119.76      -9.82       21.31       
H           121.91      -8.66       21.21       
H           124.37      -4.34       17.18       
H           126.4       -3.54       16.73       
C           119.89      -9.04       20.56       
N           119.06      -7.67       18.79       
C           119.0       -8.77       19.54       
C           130.92      -3.44       17.01       
C           131.18      -4.23       18.11       
S           129.23      -3.41       16.59       
H           129.96      -5.46       19.49       
H           132.16      -4.59       18.35       
C           129.97      -4.76       18.67       
C           128.84      -4.37       17.91       
C           137.22      3.56        11.08       
N           137.86      2.68        11.93       
C           135.9       3.92        11.36       
C           137.14      1.97        12.73       
C           135.73      2.09        12.92       
C           135.21      0.96        13.71       
C           136.52      0.32        14.15       
N           137.56      0.93        13.48       
C           133.92      0.42        14.11       
C           132.61      0.81        13.5        
N           131.62      -0.02       13.92       
C           132.13      -0.88       14.83       
C           134.12      -1.82       15.64       
C           133.56      -0.76       14.89       
C           135.17      3.2         12.31       
O           132.38      1.68        12.74       
O           136.77      -0.66       14.86       
C           130.22      0.22        13.69       
C           138.94      0.62        13.78       
H           139.57      1.0         12.96       
H           139.31543   1.06627     14.70087    
H           139.1       -0.46       13.92       
H           129.64      0.05        14.64       
H           129.81098   -0.46887    12.9509     
H           129.99      1.33        13.42       
H           133.75      -3.47       17.02       
H           135.18      -1.87       15.81       
H           134.14      3.33        12.43       
H           135.37      4.65        10.82       
C           133.33      -2.76       16.33       
N           131.34      -1.73       15.54       
C           131.92      -2.65       16.33       
C           138.86      5.88        8.47        
C           139.89      5.34        9.17        
S           137.37      5.41        9.13        
H           140.08      3.95        11.03       
H           140.87      5.66        8.98        
C           139.48      4.47        10.24       
C           138.1       4.3         10.23       
C           136.91      14.19       1.39        
N           138.22      13.69       1.41        
C           135.99      13.68       2.23        
C           138.43      12.64       2.32        
C           137.46      11.95       3.12        
C           138.13      10.74       3.71        
C           139.63      11.0        3.38        
N           139.71      12.12       2.55        
C           137.66      9.68        4.51        
C           136.19      9.33        4.66        
N           136.17      8.16        5.47        
C           137.42      7.93        5.97        
C           139.61      8.64        5.93        
C           138.34      8.86        5.48        
C           136.24      12.6        3.11        
O           135.23      9.78        4.08        
O           140.59      10.38       3.66        
C           135.2       7.1         5.28        
C           140.96      12.67       2.02        
H           140.91      13.77       1.89        
H           141.22816   12.27139    1.04158     
H           141.76      12.52       2.73        
H           135.56      6.08        5.07        
H           134.39742   7.10723     6.01751     
H           134.69      7.36        4.4         
H           140.71      7.89        7.63        
H           140.49      9.28        5.65        
H           135.42      12.28       3.8         
H           135.01      14.12       2.15        
C           139.79      7.73        7.04        
N           137.57      7.02        6.87        
C           138.78      6.93        7.49        
C           137.2       17.23       -0.95       
C           135.88      16.96       -0.82       
S           138.06      16.32       0.2         
H           134.57      15.42       0.15        
H           135.19      17.38       -1.49       
C           135.58      15.86       0.06        
C           136.71      15.4        0.67        
C           141.26      25.6        -7.35       
N           140.35      24.68       -7.77       
C           141.86      25.45       -6.15       
C           139.8       23.87       -6.9        
C           140.29      23.61       -5.55       
C           139.57      22.4        -5.03       
C           138.7       22.04       -6.24       
N           138.82      23.0        -7.25       
C           139.55      21.65       -3.91       
C           140.45      21.99       -2.68       
N           140.17      21.0        -1.7        
C           139.26      20.06       -2.15       
C           137.81      19.47       -3.9        
C           138.79      20.38       -3.45       
C           141.36      24.47       -5.24       
O           141.26      22.95       -2.5        
O           137.76      21.22       -6.2        
C           140.34      21.32       -0.3        
C           137.99      23.02       -8.47       
H           138.01      24.04       -8.86       
H           138.38337   22.29763    -9.18522    
H           137.05      22.64       -8.25       
H           140.45      20.34       0.16        
H           139.54605   21.93351    0.12585     
H           141.32      21.69       -0.12       
H           136.66      17.79       -3.62       
H           137.55      19.52       -4.92       
H           141.93      24.31       -4.32       
H           142.73      26.03       -5.85       
C           137.38      18.38       -3.15       
N           138.85      19.06       -1.4        
C           137.85      18.22       -1.85       
C           141.75      27.75       -10.42      
C           142.5       28.29       -9.44       
S           140.92      26.37       -9.95       
H           142.94      27.96       -7.32       
H           143.13      29.17       -9.47       
C           142.39      27.66       -8.22       
C           141.61      26.53       -8.36       
H           67.97       20.73       41.15       
H           141.96      28.08       -11.47      
