392

C           60.52       6.51        33.0        
N           61.79       6.91        33.35       
C           59.42       7.35        33.16       
C           61.91       8.16        33.93       
C           60.87       9.1         34.18       
C           61.42       10.36       34.87       
C           62.91       9.92        34.89       
N           63.12       8.68        34.34       
C           60.92       11.58       35.25       
C           59.52       12.09       35.02       
N           59.42       13.4        35.5        
C           60.58       13.75       36.15       
C           62.88       13.11       36.49       
C           61.56       12.72       36.02       
C           59.6        8.63        33.75       
O           58.62       11.48       34.47       
O           63.82       10.45       35.59       
C           58.16       13.99       35.58       
C           64.39       8.03        34.41       
H           64.35       6.93        34.44       
H           65.03784    8.27573     33.56856    
H           64.91       8.34        35.34       
H           58.2        15.09       35.54       
H           57.66143    13.73379    36.51482    
H           57.56       13.54       34.76       
H           63.9        14.66       37.45       
H           63.82       12.58       36.36       
H           58.67       9.22        33.88       
H           58.46       7.01        32.68       
C           63.0        14.38       37.04       
N           60.78       14.96       36.58       
C           62.01       15.32       37.07       
C           61.2        3.36        30.69       
C           59.86       3.57        30.72       
S           62.05       4.66        31.5        
H           58.39       4.92        31.7        
H           59.13       2.92        30.21       
C           59.45       4.68        31.56       
C           60.52       5.34        32.1        
C           65.59       -5.62       26.01       
N           66.43       -4.67       26.59       
C           64.22       -5.48       26.2        
C           65.79       -3.74       27.25       
C           64.4        -3.46       27.51       
C           64.32       -2.18       28.18       
C           65.71       -1.77       28.4        
N           66.48       -2.79       27.98       
C           63.22       -1.46       28.71       
C           61.8        -1.98       28.7        
N           60.98       -0.94       29.16       
C           61.72       0.16        29.48       
C           63.9        1.11        29.38       
C           63.11       -0.05       29.22       
C           63.59       -4.38       26.92       
O           61.45       -3.1        28.55       
O           66.25       -0.84       29.05       
C           59.59       -1.18       29.64       
C           67.94       -2.72       27.97       
H           68.28       -1.63       27.92       
H           68.40283    -3.20487    28.82953    
H           68.25       -3.15       27.05       
H           58.96       -0.32       29.33       
H           59.54842    -1.50567    30.67938    
H           59.15       -1.92       29.05       
H           63.92       3.16        29.89       
H           64.97       1.1         29.27       
H           62.51       -4.12       26.81       
H           63.56       -6.16       25.65       
C           63.33       2.26        29.92       
N           61.15       1.26        29.93       
C           61.94       2.33        30.03       
C           68.17       -7.9        24.13       
C           66.89       -8.49       24.03       
S           68.06       -6.39       25.01       
H           64.83       -8.14       24.78       
H           66.67       -9.48       23.66       
C           65.82       -7.77       24.65       
C           66.27       -6.6        25.24       
C           78.69       -11.26      23.36       
N           77.78       -12.07      23.0        
C           78.42       -9.92       23.65       
C           76.51       -11.64      23.02       
C           76.14       -10.36      23.34       
C           74.65       -10.3       23.3        
C           74.23       -11.71      22.83       
N           75.43       -12.46      22.76       
C           73.72       -9.31       23.63       
C           73.98       -7.86       24.01       
N           72.84       -7.27       24.19       
C           71.77       -8.04       23.96       
C           71.09       -10.14      23.22       
C           72.2        -9.31       23.53       
C           77.16       -9.45       23.7        
O           75.05       -7.28       24.17       
O           73.16       -12.25      22.51       
C           72.7        -6.17       25.18       
C           75.53       -13.85      22.32       
H           76.37       -13.9       21.66       
H           75.69566    -14.55586   23.13389    
H           74.57       -14.08      21.86       
H           73.4        -6.21       25.97       
H           72.68535    -5.15162    24.7917     
H           71.69       -6.12       25.65       
H           68.91       -10.35      23.32       
H           71.25       -11.14      22.92       
H           76.99       -8.45       24.0        
H           79.23       -9.23       23.74       
C           69.75       -9.66       23.37       
N           70.52       -7.61       24.09       
C           69.49       -8.42       23.81       
C           82.5        -12.11      22.86       
C           81.74       -13.23      22.71       
S           81.45       -10.73      23.05       
H           79.71       -13.93      22.63       
H           82.17       -14.19      22.5        
C           80.33       -13.08      22.86       
C           80.03       -11.76      23.11       
C           93.59       -11.21      22.7        
N           92.82       -10.19      22.3        
C           93.02       -12.44      22.73       
C           91.53       -10.34      22.13       
C           90.79       -11.52      22.34       
C           89.39       -11.16      22.27       
C           89.43       -9.66       21.92       
N           90.71       -9.3        21.71       
C           88.2        -11.87      22.53       
C           88.2        -13.29      23.17       
N           86.9        -13.65      23.49       
C           86.02       -12.66      22.88       
C           85.85       -10.48      22.12       
C           86.77       -11.54      22.41       
C           91.6        -12.66      22.52       
O           89.14       -13.82      23.55       
O           88.5        -8.89       21.89       
C           86.47       -14.61      24.52       
C           91.2        -7.95       21.34       
H           91.97       -7.66       22.0        
H           91.53952    -7.86685    20.30757    
H           90.36       -7.22       21.54       
H           85.43       -14.44      24.76       
H           86.59149    -15.62483   24.14123    
H           87.07       -14.31      25.36       
H           83.93       -9.77       22.04       
H           86.2        -9.54       21.74       
H           91.17       -13.67      22.49       
H           93.58       -13.34      22.99       
C           84.5        -10.65      22.28       
N           84.73       -12.88      22.97       
C           83.91       -11.81      22.71       
C           97.16       -9.78       23.27       
C           96.92       -10.62      24.25       
S           95.75       -9.49       22.32       
H           95.41       -12.28      24.68       
H           97.63       -10.86      24.99       
C           95.71       -11.39      24.1        
C           95.01       -10.83      23.11       
C           106.89      -4.81       21.95       
N           106.0       -4.65       21.01       
C           106.74      -5.71       22.97       
C           104.87      -5.34       21.16       
C           104.57      -6.29       22.17       
C           103.16      -6.6        22.04       
C           102.84      -6.11       20.62       
N           103.87      -5.3        20.23       
C           102.26      -7.36       22.8        
C           102.56      -7.77       24.26       
N           101.5       -8.51       24.69       
C           100.46      -8.55       23.75       
C           99.93       -7.78       21.71       
C           100.91      -7.83       22.63       
C           105.65      -6.62       23.03       
O           103.59      -7.71       24.94       
O           101.89      -6.32       19.93       
C           101.32      -8.88       26.14       
C           104.18      -4.98       18.83       
H           103.6       -5.7        18.28       
H           103.96229   -3.94063    18.5842     
H           105.24      -5.19       18.71       
H           100.84      -9.85       26.28       
H           100.68247   -8.14218    26.6271     
H           102.29      -8.78       26.72       
H           97.86       -8.09       21.09       
H           99.97       -7.25       20.79       
H           105.64      -7.4        23.77       
H           107.57      -5.85       23.71       
C           98.64       -8.38       21.85       
N           99.29       -9.14       23.95       
C           98.36       -9.01       23.03       
C           110.42      -3.27       21.5        
C           109.6       -2.55       20.66       
S           109.53      -4.27       22.58       
H           107.57      -2.61       20.08       
H           109.94      -1.72       20.05       
C           108.29      -3.04       20.73       
C           108.07      -4.03       21.67       
C           121.25      -0.71       21.92       
N           120.86      -1.66       22.7        
C           120.4       0.11        21.22       
C           119.55      -1.95       22.63       
C           118.56      -1.25       21.87       
C           117.26      -1.97       22.09       
C           117.64      -3.03       23.1        
N           119.03      -2.94       23.42       
C           115.92      -1.78       21.64       
C           115.59      -0.86       20.49       
N           114.24      -1.05       20.12       
C           113.65      -1.94       20.97       
C           114.03      -3.29       22.79       
C           114.62      -2.41       21.88       
C           119.05      -0.12       21.18       
O           116.27      -0.13       19.86       
O           116.95      -3.86       23.68       
C           113.53      -0.07       19.32       
C           119.81      -4.09       23.74       
H           120.7       -4.06       23.1        
H           120.24345   -4.16947    24.73695    
H           119.31      -4.99       23.46       
H           114.06      0.84        19.33       
H           113.43034   -0.3832     18.28073    
H           112.59      0.09        19.75       
H           112.21      -4.58       23.11       
H           114.58      -3.92       23.46       
H           118.39      0.54        20.65       
H           120.85      0.98        20.76       
C           112.67      -3.71       22.59       
N           112.32      -2.16       20.83       
C           111.85      -3.07       21.66       
C           125.03      0.54        22.19       
C           124.86      -0.38       23.12       
S           123.58      0.89        21.28       
H           123.39      -1.95       23.52       
H           125.61      -0.95       23.63       
C           123.54      -1.03       22.97       
C           122.67      -0.41       22.12       
C           133.87      5.59        18.41       
N           133.93      5.03        19.67       
C           132.77      5.57        17.68       
C           132.79      4.57        20.16       
C           131.49      4.74        19.52       
C           130.52      4.17        20.52       
C           131.37      3.73        21.7        
N           132.68      3.96        21.4        
C           129.18      3.91        20.41       
C           128.24      4.58        19.43       
N           126.97      4.05        19.58       
C           127.05      3.02        20.51       
C           128.43      2.0         22.09       
C           128.34      2.98        21.07       
C           131.53      5.22        18.21       
O           128.42      5.5         18.67       
O           131.04      3.36        22.83       
C           125.77      4.61        18.98       
C           133.76      3.64        22.38       
H           133.24      3.27        23.35       
H           134.44263   2.86494     22.03158    
H           134.34      4.56        22.54       
H           124.92      4.67        19.68       
H           125.50054   4.01436     18.10781    
H           125.98      5.64        18.72       
H           127.53      0.46        23.18       
H           129.36      1.76        22.59       
H           130.64      5.14        17.54       
H           132.8       5.77        16.6        
C           127.38      1.17        22.39       
N           126.0       2.28        20.85       
C           126.15      1.37        21.83       
C           137.05      6.47        16.39       
C           137.51      6.25        17.64       
S           135.36      6.39        16.25       
H           136.58      5.92        19.65       
H           138.57      6.37        17.92       
C           136.44      5.99        18.54       
C           135.17      5.92        17.87       
C           140.83      12.35       8.4         
N           141.84      11.55       8.78        
C           139.56      12.33       8.9         
C           141.43      10.51       9.58        
C           140.09      10.24       9.97        
C           140.08      9.08        10.9        
C           141.56      8.74        11.11       
N           142.3       9.58        10.25       
C           139.09      8.43        11.47       
C           137.64      8.51        10.92       
N           136.78      7.84        11.9        
C           137.53      7.42        12.97       
C           139.71      7.23        13.86       
C           138.9       7.67        12.79       
C           139.17      11.19       9.71        
O           137.31      8.91        9.84        
O           141.89      7.75        11.73       
C           135.4       7.65        11.65       
C           143.71      9.53        10.12       
H           144.33      9.12        10.96       
H           144.0709    9.07003     9.20006     
H           144.0       10.57       9.96        
H           134.75      7.82        12.47       
H           135.19138   6.62925     11.32962    
H           135.15      8.4         10.87       
H           139.79      6.52        15.91       
H           140.83      7.24        13.8        
H           138.15      11.13       10.09       
H           138.84      13.07       8.61        
C           139.13      6.74        15.07       
N           136.96      7.04        14.02       
C           137.73      6.8         15.13       
C           141.06      15.05       5.46        
C           142.3       14.48       5.61        
S           139.97      14.43       6.66        
H           143.27      13.0        6.99        
H           143.15      14.58       4.96        
C           142.38      13.57       6.73        
C           141.12      13.39       7.41        
C           137.28      23.31       -1.14       
N           138.61      23.12       -1.0        
C           136.36      22.45       -0.49       
C           139.05      22.05       -0.31       
C           138.25      21.18       0.45        
C           139.1       20.14       1.13        
C           140.44      20.55       0.55        
N           140.33      21.64       -0.29       
C           138.96      19.16       2.19        
C           137.76      19.21       3.2         
N           137.76      18.08       3.96        
C           138.96      17.41       3.83        
C           140.97      17.5        2.61        
C           139.75      18.07       2.81        
C           136.86      21.44       0.34        
O           136.82      20.03       3.12        
O           141.49      20.11       0.8         
C           136.84      17.9        4.99        
C           141.39      22.44       -0.76       
H           141.24      23.48       -0.44       
H           141.49397   22.34989    -1.84128    
H           142.23      22.02       -0.24       
H           136.2       18.78       5.21        
H           136.21211   17.03395    4.7807      
H           137.46      17.63       5.83        
H           142.4       16.01       3.16        
H           141.63      17.96       1.89        
H           136.16      20.74       0.72        
H           135.28      22.58       -0.65       
C           141.41      16.46       3.43        
N           139.33      16.4        4.63        
C           140.59      16.04       4.48        
C           136.62      26.54       -3.11       
C           135.44      25.96       -3.02       
S           137.9       25.74       -2.27       
H           134.75      23.96       -2.26       
H           134.55      26.33       -3.51       
C           135.55      24.7        -2.32       
C           136.78      24.45       -1.85       
C           139.8       36.88       -4.63       
N           138.62      36.48       -5.23       
C           140.71      36.0        -4.11       
C           138.48      35.14       -5.38       
C           139.31      34.13       -4.92       
C           138.61      32.83       -5.11       
C           137.27      33.24       -5.8        
N           137.36      34.6        -6.07       
C           138.88      31.5        -4.71       
C           140.19      31.04       -4.14       
N           140.0       29.87       -3.56       
C           138.69      29.35       -3.91       
C           136.73      29.84       -4.93       
C           137.97      30.29       -4.68       
C           140.48      34.62       -4.29       
O           141.21      31.71       -4.11       
O           136.32      32.53       -6.18       
C           141.12      29.13       -3.04       
C           136.22      35.49       -6.4        
H           136.07      36.2        -5.59       
H           136.3971    36.02131    -7.33511    
H           135.31      34.84       -6.44       
H           141.21      28.18       -3.5        
H           141.09856   29.04423    -1.95359    
H           141.96      29.74       -3.16       
H           135.23      28.4        -4.8        
H           135.98      30.46       -5.41       
H           141.09      33.89       -3.82       
H           141.59      36.44       -3.66       
C           136.19      28.64       -4.51       
N           138.22      28.16       -3.51       
C           136.94      27.82       -3.72       
C           139.71      40.81       -5.27       
C           140.85      40.5        -4.61       
S           138.81      39.31       -5.51       
H           141.86      38.62       -3.83       
H           141.63      41.22       -4.37       
C           141.01      39.1        -4.29       
C           139.97      38.36       -4.66       
H           62.07       16.2        37.75       
H           139.67      41.54       -6.03       
