392

C           51.45       38.7        41.42       
N           52.44       38.01       42.12       
C           50.11       38.54       41.61       
C           52.03       37.16       43.04       
C           50.71       36.83       43.37       
C           50.63       35.81       44.45       
C           52.08       35.51       44.7        
N           52.8        36.42       43.97       
C           49.59       35.13       45.11       
C           48.16       35.07       44.54       
N           47.39       34.48       45.53       
C           48.17       34.03       46.64       
C           50.4        34.11       47.43       
C           49.53       34.45       46.42       
C           49.77       37.58       42.61       
O           47.71       35.57       43.52       
O           52.64       34.61       45.32       
C           46.03       33.99       45.47       
C           54.22       36.33       43.68       
H           54.47       36.76       42.66       
H           54.89308    36.82215    44.38203    
H           54.48       35.29       43.67       
H           45.53       34.24       46.37       
H           45.95068    32.91561    45.30416    
H           45.54       34.57       44.66       
H           50.64       32.83       49.12       
H           51.39       34.36       47.44       
H           48.73       37.48       42.89       
H           49.39       39.09       40.96       
C           49.93       33.23       48.42       
N           47.73       33.46       47.74       
C           48.63       32.95       48.57       
C           53.69       40.7        38.82       
C           52.38       40.8        38.46       
S           53.81       39.66       40.21       
H           50.48       40.14       39.16       
H           52.06       41.35       37.59       
C           51.52       40.12       39.34       
C           52.11       39.49       40.37       
C           62.16       43.5        32.16       
N           62.4        43.34       33.4        
C           60.88       43.53       31.56       
C           61.32       43.08       34.14       
C           60.0        43.13       33.79       
C           59.18       42.8        35.01       
C           60.25       42.61       36.05       
N           61.47       42.85       35.47       
C           57.78       42.61       35.24       
C           56.67       42.81       34.2        
N           55.52       42.43       34.74       
C           55.66       42.02       36.03       
C           57.17       41.76       37.81       
C           57.01       42.13       36.46       
C           59.79       43.35       32.43       
O           56.74       43.17       33.04       
O           60.17       42.23       37.19       
C           54.43       41.94       33.89       
C           62.7        43.03       36.23       
H           62.41       43.43       37.14       
H           63.29808    42.13288    36.38995    
H           63.19       43.82       35.66       
H           53.44       42.22       34.31       
H           54.54178    40.87107    33.70835    
H           54.41       42.43       32.89       
H           56.27       41.39       39.71       
H           58.17       41.74       38.27       
H           58.87       43.46       31.91       
H           60.77       43.58       30.49       
C           56.08       41.45       38.64       
N           54.64       41.52       36.8        
C           54.85       41.17       38.08       
C           65.81       43.58       30.92       
C           65.05       43.85       29.87       
S           64.88       43.55       32.39       
H           62.72       44.0        29.56       
H           65.39       43.83       28.82       
C           63.62       43.92       30.2        
C           63.38       43.73       31.5        
C           75.89       39.48       33.14       
N           75.14       39.05       32.04       
C           75.37       40.4        34.01       
C           73.96       39.55       31.84       
C           73.26       40.44       32.72       
C           72.0        40.76       31.93       
C           72.15       40.12       30.53       
N           73.26       39.35       30.61       
C           70.85       41.45       32.33       
C           70.65       41.77       33.77       
N           69.45       42.49       33.81       
C           68.8        42.53       32.58       
C           69.13       41.93       30.34       
C           69.62       41.93       31.61       
C           74.03       40.86       33.84       
O           71.37       41.7        34.75       
O           71.43       40.21       29.58       
C           69.13       43.5        34.77       
C           73.98       38.9        29.4        
H           75.07       38.88       29.53       
H           73.75546    37.90768    29.00887    
H           73.69       39.55       28.57       
H           69.34       43.09       35.74       
H           69.66858    44.43726    34.63011    
H           68.05       43.63       34.76       
H           67.5        42.35       28.97       
H           69.7        41.56       29.55       
H           73.59       41.55       34.55       
H           75.86       40.74       34.89       
C           67.85       42.47       30.0        
N           67.58       43.06       32.35       
C           67.17       43.14       31.03       
C           79.38       37.8        33.2        
C           79.28       38.56       34.31       
S           77.94       37.81       32.27       
H           77.81       39.74       35.34       
H           80.11       38.69       35.02       
C           78.0        39.17       34.46       
C           77.19       38.94       33.4        
C           88.68       35.11       27.97       
N           87.46       34.95       27.38       
C           88.73       35.47       29.28       
C           86.36       35.18       28.04       
C           86.31       35.52       29.45       
C           84.83       35.68       29.77       
C           84.15       35.21       28.48       
N           85.11       34.99       27.52       
C           84.25       36.19       30.94       
C           85.04       37.14       31.9        
N           84.08       37.64       32.8        
C           82.79       37.17       32.48       
C           81.62       35.67       31.01       
C           82.89       36.21       31.41       
C           87.6        35.57       30.04       
O           86.18       37.63       31.91       
O           82.95       35.3        28.25       
C           84.23       38.9        33.54       
C           84.78       34.36       26.21       
H           83.96       33.64       26.33       
H           84.52044    35.13868    25.49279    
H           85.75       33.83       25.94       
H           83.38       39.52       33.36       
H           84.34978    38.69566    34.60395    
H           85.03       39.39       33.1        
H           79.42       35.88       31.23       
H           81.67       34.85       30.29       
H           87.76       35.79       31.07       
H           89.62       35.55       29.85       
C           80.39       36.2        31.54       
N           81.68       37.74       32.95       
C           80.5        37.2        32.55       
C           91.37       35.07       25.2        
C           92.05       35.19       26.34       
S           89.64       35.02       25.41       
H           91.63       35.18       28.47       
H           93.09       35.28       26.38       
C           91.22       35.09       27.46       
C           89.88       35.04       27.15       
C           96.42       34.43       15.34       
N           95.21       35.01       15.44       
C           97.06       33.81       16.41       
C           94.7        35.08       16.64       
C           95.24       34.59       17.86       
C           94.28       34.95       18.9        
C           93.27       35.78       18.15       
N           93.52       35.82       16.81       
C           94.24       34.72       20.27       
C           95.48       34.21       21.06       
N           95.12       34.11       22.45       
C           93.82       34.63       22.58       
C           92.06       35.71       21.51       
C           93.31       35.09       21.34       
C           96.45       33.9        17.68       
O           96.56       33.92       20.7        
O           92.22       36.27       18.61       
C           96.05       33.46       23.38       
C           92.75       36.5        15.81       
H           91.66       36.14       15.8        
H           92.85524    37.58045    15.90822    
H           93.06       36.27       14.83       
H           95.63       32.52       23.7        
H           96.31144    34.15487    24.17807    
H           96.95       33.1        22.9        
H           90.46       36.36       22.95       
H           91.52       36.05       20.68       
H           97.02       33.53       18.51       
H           98.04       33.37       16.37       
C           91.46       35.83       22.78       
N           93.22       34.63       23.77       
C           91.94       35.08       23.83       
C           98.66       34.88       12.28       
C           97.49       35.5        11.92       
S           98.58       33.94       13.71       
H           95.63       35.92       13.06       
H           97.46       36.16       11.04       
C           96.53       35.35       12.93       
C           97.0        34.55       14.0        
C           107.85      34.82       6.39        
N           107.81      34.26       7.6         
C           106.74      35.2        5.67        
C           106.61      34.18       8.12        
C           105.43      34.73       7.61        
C           104.44      34.55       8.72        
C           105.21      33.77       9.82        
N           106.43      33.56       9.34        
C           103.1       34.72       8.87        
C           102.22      35.24       7.76        
N           100.92      35.11       8.17        
C           100.86      34.87       9.5         
C           102.2       34.48       11.42       
C           102.21      34.7        10.0        
C           105.5       35.24       6.29        
O           102.46      35.61       6.63        
O           104.88      33.2        10.85       
C           99.78       35.19       7.31        
C           107.41      32.66       9.95        
H           107.3       32.51       11.0        
H           107.35853   31.67468    9.48675     
H           108.38      33.03       9.74        
H           100.01      35.81       6.41        
H           99.34812    34.24128    6.9914      
H           99.07       35.85       7.87        
H           101.19      34.55       13.22       
H           103.15      34.33       11.93       
H           104.58      35.64       5.75        
H           106.89      35.88       4.86        
C           101.07      34.58       12.14       
N           99.71       34.95       10.18       
C           99.88       34.78       11.51       
C           111.28      35.07       4.56        
C           111.57      34.72       5.83        
S           109.59      35.35       4.22        
H           110.36      34.12       7.6         
H           112.53      34.51       6.19        
C           110.39      34.51       6.56        
C           109.21      34.81       5.85        
C           117.09      39.69       -3.63       
N           117.6       39.54       -2.44       
C           115.93      39.07       -3.98       
C           116.86      38.89       -1.5        
C           115.61      38.22       -1.75       
C           115.19      37.68       -0.39       
C           116.28      38.13       0.58        
N           117.22      38.87       -0.11       
C           114.17      36.92       0.12        
C           112.98      36.6        -0.79       
N           112.07      35.93       -0.01       
C           112.46      35.85       1.29        
C           114.36      36.19       2.69        
C           113.79      36.37       1.42        
C           115.16      38.36       -3.12       
O           112.7       37.02       -1.93       
O           116.39      38.16       1.79        
C           110.85      35.46       -0.57       
C           118.49      39.29       0.41        
H           119.21      39.29       -0.43       
H           118.45437   40.18081    1.03713     
H           118.72      38.49       1.13        
H           110.02      36.05       -0.12       
H           110.71427   34.38134    -0.49142    
H           110.93      35.77       -1.58       
H           114.02      35.55       4.64        
H           115.37      36.5        2.98        
H           114.21      37.97       -3.49       
H           115.59      39.1        -5.07       
C           113.56      35.7        3.68        
N           111.69      35.46       2.27        
C           112.22      35.33       3.5         
C           119.8       41.83       -5.35       
C           118.91      41.47       -6.31       
S           119.28      41.33       -3.77       
H           117.2       40.11       -6.47       
H           119.05      41.65       -7.4        
C           117.88      40.64       -5.78       
C           117.99      40.43       -4.46       
C           128.25      48.57       -6.15       
N           128.04      47.86       -7.2        
C           127.58      48.4        -4.95       
C           127.1       46.97       -7.06       
C           126.4       46.56       -5.94       
C           125.46      45.48       -6.3        
C           125.71      45.34       -7.77       
N           126.76      46.16       -8.13       
C           124.57      44.71       -5.56       
C           124.66      44.64       -4.06       
N           123.67      43.92       -3.63       
C           122.88      43.43       -4.65       
C           122.8       43.29       -7.03       
C           123.43      43.82       -5.92       
C           126.56      47.44       -4.86       
O           125.45      45.23       -3.29       
O           125.18      44.61       -8.61       
C           123.26      43.91       -2.21       
C           127.11      46.45       -9.5        
H           127.32      47.48       -9.66       
H           127.94904   45.83607    -9.82743    
H           126.28      46.26       -10.19      
H           122.82      42.96       -1.98       
H           122.6204    44.75343    -1.94994    
H           124.04      43.92       -1.53       
H           121.12      42.23       -7.66       
H           123.19      43.5        -8.03       
H           126.05      47.33       -3.95       
H           127.78      48.98       -4.05       
C           121.61      42.64       -6.81       
N           121.72      42.84       -4.39       
C           121.09      42.47       -5.57       
C           131.43      50.68       -5.47       
C           131.41      50.36       -6.82       
S           129.95      50.15       -4.75       
H           130.28      49.02       -8.14       
H           132.28      50.56       -7.45       
C           130.39      49.44       -7.15       
C           129.41      49.36       -6.21       
C           135.17      58.16       1.59        
N           135.92      57.88       0.55        
C           134.09      57.33       1.89        
C           135.47      56.97       -0.26       
C           134.43      56.04       -0.06       
C           134.45      55.1        -1.21       
C           135.61      55.6        -2.08       
N           136.1       56.75       -1.4        
C           133.68      53.93       -1.54       
C           132.84      53.19       -0.42       
N           132.37      52.03       -1.06       
C           132.57      52.23       -2.46       
C           133.68      53.41       -4.2        
C           133.44      53.25       -2.8        
C           133.82      56.17       1.18        
O           132.82      53.31       0.76        
O           136.02      55.11       -3.11       
C           131.87      50.87       -0.36       
C           137.07      57.6        -2.07       
H           137.78      57.91       -1.36       
H           136.59346   58.28593    -2.77037    
H           137.77      56.96       -2.62       
H           132.61      50.62       0.36        
H           130.91554   51.058      0.13169     
H           131.83      50.02       -1.05       
H           133.17      52.77       -6.2        
H           134.23      54.24       -4.57       
H           132.89      55.61       1.44        
H           133.37      57.48       2.73        
C           133.06      52.61       -5.14       
N           132.1       51.35       -3.35       
C           132.3       51.56       -4.69       
C           137.25      60.87       3.44        
C           136.11      60.69       4.2         
S           137.23      59.83       1.99        
H           134.18      59.55       4.06        
H           135.89      61.3        5.04        
C           135.17      59.79       3.62        
C           135.66      59.25       2.38        
C           146.69      66.32       6.02        
N           146.52      65.77       4.82        
C           145.69      66.13       7.03        
C           145.37      65.09       4.59        
C           144.27      64.89       5.53        
C           143.3       64.09       4.76        
C           143.89      63.97       3.36        
N           145.18      64.52       3.35        
C           141.96      63.53       5.11        
C           141.53      63.44       6.57        
N           140.26      62.86       6.57        
C           139.83      62.51       5.3         
C           140.47      62.62       3.02        
C           140.82      62.91       4.34        
C           144.49      65.5        6.77        
O           142.23      63.62       7.57        
O           143.44      63.36       2.4         
C           139.62      62.42       7.8         
C           146.22      64.32       2.41        
H           146.12      63.32       2.02        
H           146.29746   64.96783    1.53684     
H           147.06      64.17       3.0         
H           139.29      61.41       7.84        
H           138.93627   63.18746    8.1628      
H           140.44      62.33       8.51        
H           139.05      61.64       1.67        
H           141.14      62.93       2.23        
H           143.86      65.33       7.6         
H           145.85      66.54       8.0         
C           139.31      61.91       2.68        
N           138.68      61.84       5.01        
C           138.44      61.66       3.7         
C           149.98      67.86       7.46        
C           150.16      67.7        6.12        
S           148.39      67.55       7.9         
H           149.03      66.7        4.45        
H           151.15      67.72       5.61        
C           149.02      67.07       5.48        
C           148.0       66.95       6.34        
H           48.42       31.93       48.87       
H           150.87      68.14       8.06        
