392

C           54.18       19.94       24.73       
N           54.84       19.42       25.82       
C           52.82       19.92       24.52       
C           54.02       18.98       26.7        
C           52.59       18.88       26.65       
C           52.14       18.07       27.84       
C           53.46       17.66       28.53       
N           54.49       18.28       27.76       
C           50.89       17.64       28.33       
C           49.6        18.19       27.71       
N           48.5        17.54       28.27       
C           48.96       16.63       29.24       
C           50.91       15.81       30.31       
C           50.38       16.73       29.41       
C           52.01       19.49       25.54       
O           49.36       19.09       27.03       
O           53.67       17.15       29.62       
C           47.14       17.77       28.05       
C           55.83       18.09       28.07       
H           56.49       18.14       27.21       
H           56.26971    18.774      28.79588    
H           55.94       17.08       28.49       
H           46.7        17.77       29.07       
H           46.71444    17.03946    27.36202    
H           46.96       18.79       27.74       
H           50.55       14.51       31.95       
H           51.95       15.79       30.63       
H           51.0        19.52       25.25       
H           52.41       20.31       23.59       
C           50.12       15.06       31.1        
N           48.18       15.88       29.95       
C           48.74       15.16       30.9        
C           57.41       21.63       23.17       
C           56.41       21.68       22.22       
S           56.77       20.8        24.57       
H           54.28       20.87       21.86       
H           56.48       22.04       21.21       
C           55.15       21.01       22.56       
C           55.2        20.56       23.89       
C           67.52       25.9        21.76       
N           67.19       25.29       22.95       
C           66.64       26.04       20.78       
C           65.96       24.8        23.13       
C           64.92       24.81       22.18       
C           63.78       24.11       22.77       
C           64.43       23.46       24.04       
N           65.59       24.03       24.23       
C           62.48       23.76       22.32       
C           62.02       24.12       20.9        
N           60.73       23.61       20.66       
C           60.29       23.04       21.82       
C           60.99       22.2        23.94       
C           61.34       22.97       22.8        
C           65.28       25.56       21.0        
O           62.56       24.69       19.93       
O           63.91       22.73       24.82       
C           60.17       23.45       19.33       
C           66.34       23.98       25.46       
H           65.6        23.91       26.24       
H           67.08802    23.18923    25.40301    
H           66.85       24.85       25.52       
H           59.11       23.64       19.59       
H           60.3583     22.4527     18.93247    
H           60.43       24.29       18.68       
H           59.41       21.19       24.83       
H           61.67       21.92       24.7        
H           64.55       25.8        20.23       
H           66.98       26.5        19.8        
C           59.68       21.75       24.0        
N           59.09       22.67       21.86       
C           58.75       22.07       23.04       
C           71.08       26.96       22.43       
C           70.87       27.16       21.09       
S           69.72       26.13       23.13       
H           69.28       27.03       19.64       
H           71.52       27.79       20.48       
C           69.59       26.85       20.64       
C           68.86       26.27       21.63       
C           78.72       31.32       28.64       
N           79.14       30.57       27.67       
C           77.47       31.2        29.14       
C           78.32       29.74       27.09       
C           77.02       29.51       27.51       
C           76.4        28.73       26.43       
C           77.52       28.34       25.43       
N           78.65       29.08       25.87       
C           75.13       28.31       26.14       
C           74.12       28.07       27.28       
N           72.97       27.67       26.76       
C           73.06       27.61       25.37       
C           74.5        27.79       23.55       
C           74.35       27.89       24.92       
C           76.6        30.23       28.69       
O           74.36       28.24       28.48       
O           77.55       27.65       24.42       
C           71.71       27.79       27.47       
C           79.95       28.99       25.18       
H           80.06       28.12       24.54       
H           80.25242    29.88285    24.63277    
H           80.7        28.72       25.9        
H           70.85       27.48       26.79       
H           71.62378    27.15776    28.3537     
H           71.59       28.85       27.64       
H           73.52       27.38       21.67       
H           75.42       28.05       23.06       
H           75.65       30.28       29.13       
H           77.15       31.74       29.98       
C           73.4        27.45       22.76       
N           71.98       27.33       24.63       
C           72.23       27.25       23.34       
C           81.71       33.31       30.01       
C           80.64       34.11       30.08       
S           81.34       31.79       29.29       
H           78.45       33.98       29.76       
H           80.74       35.09       30.38       
C           79.42       33.42       29.7        
C           79.67       32.24       29.14       
C           92.46       34.94       32.34       
N           91.73       35.85       31.7        
C           91.9        33.71       32.61       
C           90.44       35.59       31.51       
C           89.76       34.41       31.71       
C           88.33       34.58       31.3        
C           88.32       36.05       30.82       
N           89.61       36.52       30.82       
C           87.27       33.73       31.08       
C           87.39       32.21       31.25       
N           86.19       31.67       30.82       
C           85.21       32.66       30.66       
C           84.98       35.0        30.41       
C           85.85       33.93       30.73       
C           90.51       33.44       32.37       
O           88.36       31.51       31.54       
O           87.4        36.64       30.27       
C           85.89       30.25       30.67       
C           90.09       37.85       30.36       
H           89.7        38.07       29.37       
H           89.78692    38.68346    30.99371    
H           91.19       37.91       30.32       
H           84.8        30.17       30.69       
H           86.33116    29.91388    29.73165    
H           86.31       29.6        31.51       
H           82.98       35.66       30.33       
H           85.23       36.03       30.35       
H           90.12       32.51       32.74       
H           92.42       32.93       33.19       
C           83.65       34.76       30.24       
N           83.91       32.41       30.46       
C           83.08       33.47       30.19       
C           96.04       36.52       32.25       
C           96.22       35.29       32.85       
S           94.41       36.76       31.77       
H           94.9        33.53       33.31       
H           97.21       34.84       32.97       
C           94.91       34.62       32.99       
C           93.86       35.34       32.58       
C           101.52      43.06       25.31       
N           102.33      42.37       26.17       
C           100.13      43.13       25.5        
C           101.7       41.62       27.16       
C           100.31      41.58       27.4        
C           99.99       40.66       28.49       
C           101.36      40.15       28.88       
N           102.34      40.73       28.02       
C           98.76       40.24       29.04       
C           97.44       40.9        28.75       
N           96.45       40.03       29.31       
C           97.03       39.08       30.11       
C           99.09       38.25       30.83       
C           98.43       39.11       29.98       
C           99.61       42.37       26.5        
O           97.13       41.85       28.03       
O           101.76      39.27       29.6        
C           95.08       39.9        28.84       
C           103.76      40.7        28.14       
H           103.95      40.29       29.11       
H           104.30489   40.03932    27.46569    
H           104.15      41.75       28.19       
H           94.44       39.68       29.67       
H           95.00216    39.17113    28.03329    
H           94.81       40.87       28.41       
H           98.83       36.72       32.35       
H           100.17      38.23       30.92       
H           98.52       42.48       26.53       
H           99.56       43.74       24.8        
C           98.34       37.39       31.61       
N           96.27       38.32       30.83       
C           96.96       37.44       31.56       
C           103.96      44.66       22.66       
C           102.68      45.0        22.27       
S           103.9       43.64       24.08       
H           100.66      44.62       22.97       
H           102.38      45.53       21.38       
C           101.69      44.46       23.12       
C           102.2       43.77       24.2        
C           112.92      49.44       18.19       
N           113.08      48.45       19.05       
C           111.66      49.95       17.81       
C           111.94      47.84       19.51       
C           110.61      48.12       19.07       
C           109.79      47.11       19.76       
C           110.76      46.38       20.71       
N           112.06      46.8        20.38       
C           108.42      46.81       19.81       
C           107.46      47.36       18.77       
N           106.13      47.11       19.24       
C           106.17      46.23       20.26       
C           107.58      45.04       21.78       
C           107.47      45.97       20.66       
C           110.55      49.2        18.15       
O           107.66      48.21       17.9        
O           110.61      45.46       21.46       
C           104.95      47.77       18.69       
C           113.32      46.25       20.76       
H           113.15      45.83       21.77       
H           113.58522   45.38453    20.15278    
H           114.12      46.96       20.91       
H           105.24      48.78       18.37       
H           104.55736   47.18105    17.8611     
H           104.22      47.87       19.48       
H           106.56      43.79       23.24       
H           108.58      44.78       22.09       
H           109.59      49.45       17.74       
H           111.58      50.81       17.08       
C           106.43      44.51       22.45       
N           105.09      45.84       20.99       
C           105.23      44.95       22.04       
C           115.94      51.35       16.71       
C           116.37      50.85       17.93       
S           114.25      51.05       16.48       
H           115.54      49.37       19.4        
H           117.38      50.86       18.35       
C           115.36      50.03       18.52       
C           114.17      50.1        17.85       
C           120.61      55.9        7.69        
N           121.3       55.78       8.82        
C           119.19      55.85       7.76        
C           120.64      55.36       9.89        
C           119.26      55.04       10.02       
C           119.11      54.43       11.42       
C           120.52      54.57       11.99       
N           121.29      55.1        11.0        
C           118.07      53.83       12.12       
C           116.65      53.83       11.44       
N           115.79      53.28       12.41       
C           116.52      52.91       13.55       
C           118.64      52.82       14.55       
C           117.92      53.21       13.44       
C           118.52      55.36       8.82        
O           116.3       54.37       10.45       
O           121.04      54.21       13.02       
C           114.52      52.77       12.1        
C           122.64      55.55       11.31       
H           123.24      55.72       10.41       
H           122.64721   56.52346    11.80033    
H           123.14      54.75       11.82       
H           113.86      52.95       12.91       
H           114.55639   51.75117    11.7143     
H           114.13      53.42       11.39       
H           118.55      51.92       16.49       
H           119.69      52.89       14.56       
H           117.46      55.27       8.67        
H           118.58      56.08       6.92        
C           117.98      52.29       15.68       
N           115.88      52.4        14.58       
C           116.64      52.06       15.69       
C           122.99      57.67       5.1         
C           121.84      57.25       4.46        
S           122.83      57.2        6.7         
H           119.96      56.18       4.89        
H           121.71      57.31       3.37        
C           120.95      56.52       5.22        
C           121.35      56.44       6.54        
C           130.4       65.09       2.54        
N           129.63      64.53       1.55        
C           130.45      64.47       3.71        
C           129.02      63.36       1.8         
C           128.93      62.69       3.05        
C           128.07      61.52       2.96        
C           127.69      61.58       1.43        
N           128.19      62.69       0.86        
C           127.5       60.61       3.84        
C           128.11      60.23       5.2         
N           127.3       59.27       5.76        
C           126.16      59.13       5.0         
C           125.17      59.72       2.87        
C           126.23      59.86       3.81        
C           129.68      63.32       4.0         
O           129.14      60.63       5.76        
O           126.94      60.81       0.76        
C           127.84      58.24       6.65        
C           128.0       62.97       -0.57       
H           127.45      62.14       -1.09       
H           127.53694   63.93759    -0.76352    
H           128.97      62.77       -0.96       
H           127.84      57.22       6.17        
H           127.31295   58.12604    7.59727     
H           128.85      58.45       6.73        
H           123.1       59.05       2.85        
H           125.13      60.3        2.01        
H           129.66      63.03       4.97        
H           131.06      64.92       4.52        
C           124.04      58.99       3.39        
N           125.2       58.32       5.36        
C           124.17      58.26       4.52        
C           132.68      68.3        2.28        
C           131.93      68.21       1.13        
S           132.23      67.03       3.35        
H           130.45      66.76       0.36        
H           132.03      68.99       0.35        
C           131.09      67.09       1.12        
C           131.11      66.33       2.21        
C           140.24      74.4        7.52        
N           139.77      74.94       6.4         
C           139.96      73.1        7.89        
C           138.94      74.21       5.71        
C           138.45      72.88       6.03        
C           137.48      72.43       5.01        
C           137.34      73.67       4.17        
N           138.3       74.67       4.57        
C           136.74      71.29       4.84        
C           136.98      70.02       5.72        
N           135.98      69.16       5.46        
C           135.22      69.65       4.41        
C           134.74      71.37       2.91        
C           135.58      70.92       3.96        
C           138.94      72.42       7.22        
O           137.72      69.82       6.66        
O           136.59      73.83       3.24        
C           136.07      67.77       5.89        
C           138.69      75.75       3.72        
H           139.81      75.79       3.57        
H           138.31139   76.71756    4.04953     
H           138.26      75.47       2.73        
H           137.09      67.66       6.41        
H           135.25718   67.49684    6.56291     
H           136.09      67.16       5.04        
H           133.29      70.98       1.46        
H           134.98      72.31       2.41        
H           138.51      71.55       7.66        
H           140.24      72.69       8.86        
C           133.74      70.62       2.37        
N           134.24      68.83       3.9         
C           133.48      69.33       2.9         
C           143.27      76.66       8.53        
C           142.82      75.98       9.64        
S           142.25      76.31       7.18        
H           141.17      74.59       10.06       
H           143.31      75.94       10.62       
C           141.63      75.23       9.35        
C           141.2       75.28       8.13        
C           152.21      82.84       9.41        
N           152.1       82.17       8.22        
C           151.28      82.69       10.44       
C           150.98      81.33       8.11        
C           149.96      81.17       9.12        
C           148.96      80.18       8.53        
C           149.39      80.05       7.1         
N           150.59      80.71       6.96        
C           147.97      79.44       9.13        
C           147.94      79.09       10.68       
N           146.77      78.4        10.88       
C           146.1       78.17       9.69        
C           146.11      78.63       7.32        
C           146.81      78.77       8.6         
C           150.14      81.87       10.29       
O           148.61      79.6        11.57       
O           148.97      79.36       6.27        
C           146.34      77.79       12.18       
C           151.07      81.1        5.67        
H           151.73      81.98       5.66        
H           151.7584    80.36192    5.25838     
H           150.2       81.13       5.03        
H           146.16      76.74       12.01       
H           145.51284   78.29195    12.68195    
H           147.22      77.85       12.81       
H           144.3       78.03       6.42        
H           146.41      79.1        6.43        
H           149.43      81.68       11.12       
H           151.4       83.2        11.38       
C           144.9       77.94       7.33        
N           144.95      77.58       9.65        
C           144.43      77.41       8.47        
C           155.16      85.19       10.38       
C           155.58      84.33       9.29        
S           153.49      84.98       10.56       
H           154.69      82.53       8.23        
H           156.55      84.29       8.91        
C           154.65      83.28       8.99        
C           153.49      83.55       9.59        
H           48.01       14.57       31.6        
H           155.8       85.48       11.23       
