392

C           52.12       22.73       40.84       
N           52.98       21.94       41.42       
C           50.81       22.62       41.15       
C           52.64       21.25       42.52       
C           51.33       21.06       42.99       
C           51.39       20.11       44.15       
C           52.88       19.65       44.05       
N           53.52       20.4        43.12       
C           50.46       19.52       45.02       
C           49.01       19.92       44.96       
N           48.34       18.98       45.73       
C           49.23       18.19       46.49       
C           51.45       17.5        46.65       
C           50.55       18.37       46.07       
C           50.43       21.8        42.22       
O           48.41       20.65       44.16       
O           53.56       18.91       44.75       
C           47.0        18.5        45.27       
C           54.73       20.01       42.56       
H           54.84       20.43       41.57       
H           55.52889    20.38842    43.19771    
H           54.72       18.92       42.58       
H           46.44       18.11       46.14       
H           47.10151    17.67345    44.56671    
H           46.55       19.38       44.85       
H           51.77       15.93       47.9        
H           52.51       17.55       46.52       
H           49.34       21.78       42.4        
H           50.1        23.17       40.54       
C           51.0        16.58       47.59       
N           48.79       17.26       47.39       
C           49.69       16.52       48.0        
C           53.89       24.55       37.92       
C           52.57       24.6        37.58       
S           54.19       23.75       39.42       
H           50.67       24.05       38.7        
H           52.14       25.14       36.67       
C           51.74       24.11       38.69       
C           52.5        23.53       39.69       
C           62.28       27.23       31.15       
N           62.33       27.74       32.48       
C           61.15       26.71       30.69       
C           61.24       27.54       33.23       
C           60.07       26.92       32.82       
C           59.14       26.81       33.99       
C           59.97       27.53       35.08       
N           61.12       27.95       34.51       
C           57.81       26.31       34.19       
C           56.86       25.9        33.07       
N           55.71       25.4        33.61       
C           55.77       25.48       35.0        
C           57.14       26.05       36.84       
C           57.02       26.08       35.43       
C           60.02       26.64       31.45       
O           57.08       25.91       31.87       
O           59.62       27.79       36.23       
C           54.65       24.73       32.85       
C           62.17       28.64       35.25       
H           61.77       29.27       36.05       
H           62.88041    27.96583    35.72844    
H           62.59       29.39       34.69       
H           53.63       25.1        33.12       
H           54.70695    23.65498    33.02086    
H           54.83       25.01       31.76       
H           56.33       25.51       38.77       
H           58.07       26.38       37.34       
H           59.15       26.26       30.99       
H           60.97       26.38       29.64       
C           56.15       25.52       37.68       
N           54.74       25.07       35.81       
C           54.94       25.07       37.14       
C           65.83       27.66       29.51       
C           65.15       26.8        28.71       
S           64.88       28.28       30.81       
H           63.16       25.76       28.74       
H           65.51       26.28       27.82       
C           63.86       26.52       29.26       
C           63.57       27.19       30.41       
C           76.15       31.72       29.17       
N           75.94       30.65       28.4        
C           75.2        32.51       29.78       
C           74.64       30.3        28.21       
C           73.53       30.94       28.82       
C           72.33       30.03       28.52       
C           72.93       29.01       27.55       
N           74.32       29.23       27.41       
C           71.02       30.07       28.93       
C           70.49       31.11       29.91       
N           69.28       30.79       30.42       
C           68.91       29.67       29.74       
C           69.34       28.1        28.06       
C           69.8        29.21       28.76       
C           73.89       32.05       29.61       
O           71.08       31.89       30.56       
O           72.34       28.05       27.0        
C           68.34       31.7        31.09       
C           75.34       28.32       26.88       
H           74.97       27.27       26.89       
H           75.61891    28.59194    25.86198    
H           76.19       28.27       27.5        
H           67.4        31.76       30.49       
H           68.10681    31.48138    32.13208    
H           68.75       32.68       30.97       
H           67.85       26.76       27.73       
H           69.8        27.78       27.1        
H           73.25       32.59       30.22       
H           75.43       33.46       30.23       
C           68.11       27.6        28.36       
N           67.74       29.12       30.05       
C           67.24       28.08       29.35       
C           79.98       31.83       29.59       
C           79.42       32.95       30.23       
S           78.7        30.76       29.12       
H           77.46       33.93       30.32       
H           80.0        33.65       30.73       
C           78.03       33.04       30.05       
C           77.47       31.94       29.43       
C           90.14       28.13       27.45       
N           90.01       29.28       28.16       
C           89.09       27.34       27.13       
C           88.76       29.57       28.51       
C           87.54       28.9        28.19       
C           86.38       29.69       28.71       
C           87.12       30.72       29.62       
N           88.46       30.68       29.32       
C           85.05       29.6        28.51       
C           84.37       28.7        27.4        
N           82.98       28.89       27.42       
C           82.67       29.83       28.42       
C           83.58       31.16       30.12       
C           83.84       30.2        29.11       
C           87.81       27.7        27.45       
O           84.93       27.97       26.58       
O           86.67       31.59       30.38       
C           82.11       27.9        26.88       
C           89.39       31.71       29.63       
H           88.79       32.59       29.43       
H           89.82537    31.60841    30.6241     
H           90.13       31.65       28.9        
H           82.47       27.49       25.92       
H           81.82282    27.18204    27.64822    
H           81.21       28.46       26.45       
H           82.26       32.56       30.97       
H           84.4        31.52       30.75       
H           86.98       27.06       27.2        
H           89.33       26.53       26.38       
C           82.34       31.8        30.2        
N           81.45       30.35       28.61       
C           81.3        31.31       29.51       
C           93.68       28.97       26.13       
C           93.49       27.62       25.87       
S           92.33       29.67       26.92       
H           91.9        26.19       26.24       
H           94.21       26.97       25.34       
C           92.28       27.18       26.43       
C           91.5        28.15       26.95       
C           98.67       37.36       21.19       
N           99.5        36.25       21.41       
C           97.4        37.4        21.8        
C           99.02       35.22       22.08       
C           97.72       35.2        22.73       
C           97.57       33.89       23.34       
C           98.7        33.07       22.78       
N           99.62       33.97       22.19       
C           96.57       33.36       24.1        
C           95.6        34.24       24.97       
N           94.73       33.38       25.59       
C           95.09       32.07       25.4        
C           96.63       30.63       24.43       
C           96.18       31.99       24.54       
C           96.91       36.41       22.64       
O           95.61       35.45       25.07       
O           99.02       31.94       23.13       
C           93.81       33.9        26.59       
C           101.05      33.79       22.21       
H           101.34      33.07       23.01       
H           101.46393   33.58666    21.22237    
H           101.36      34.75       22.52       
H           93.63       33.1        27.38       
H           92.83085    34.17561    26.19834    
H           94.28       34.8        26.96       
H           96.05       28.6        24.58       
H           97.45       30.4        23.84       
H           95.93       36.54       23.11       
H           96.74       38.22       21.72       
C           95.75       29.61       24.79       
N           94.46       31.11       26.01       
C           94.65       29.85       25.6        
C           101.24      40.1        19.92       
C           99.99       40.54       19.7        
S           101.08      38.53       20.65       
H           97.86       40.03       19.96       
H           99.8        41.53       19.34       
C           98.91       39.73       20.08       
C           99.35       38.54       20.64       
C           110.73      44.29       16.2        
N           110.77      43.05       16.62       
C           109.63      45.08       16.32       
C           109.66      42.61       17.2        
C           108.42      43.29       17.37       
C           107.41      42.34       17.92       
C           108.24      41.05       18.12       
N           109.5       41.31       17.54       
C           106.02      42.48       18.13       
C           105.2       43.58       17.45       
N           103.86      43.42       17.73       
C           103.71      42.3        18.6        
C           104.87      40.48       19.48       
C           104.96      41.66       18.78       
C           108.48      44.59       16.88       
O           105.47      44.53       16.72       
O           107.86      39.98       18.54       
C           102.81      44.32       17.24       
C           110.58      40.31       17.44       
H           110.49      39.69       18.31       
H           110.48828   39.69617    16.54395    
H           111.43      40.89       17.68       
H           103.13      45.37       17.11       
H           102.41484   43.96718    16.28739    
H           102.0       44.23       18.04       
H           103.58      39.01       20.3        
H           105.72      39.86       19.66       
H           107.61      45.23       16.94       
H           109.57      46.11       15.95       
C           103.62      40.05       19.92       
N           102.5       41.88       18.96       
C           102.44      40.66       19.56       
C           113.63      45.77       14.02       
C           114.21      45.1        15.09       
S           111.92      45.89       14.21       
H           113.41      43.79       16.74       
H           115.23      45.15       15.31       
C           113.22      44.49       15.94       
C           111.92      44.83       15.58       
C           115.86      54.83       8.33        
N           116.83      54.2        8.97        
C           114.56      54.25       8.18        
C           116.51      52.99       9.52        
C           115.27      52.27       9.44        
C           115.39      51.04       10.28       
C           116.86      51.09       10.68       
N           117.42      52.29       10.28       
C           114.58      49.94       10.56       
C           113.24      49.62       9.87        
N           112.77      48.45       10.44       
C           113.59      48.02       11.45       
C           115.62      48.45       12.51       
C           114.71      48.82       11.52       
C           114.27      53.01       8.74        
O           112.7       50.27       9.06        
O           117.61      50.32       11.21       
C           111.42      47.95       10.25       
C           118.83      52.67       10.3        
H           119.22      52.99       9.35        
H           119.16643   53.43398    11.0009     
H           119.37      51.71       10.43       
H           110.96      47.85       11.23       
H           111.43464   46.97663    9.75966     
H           110.85      48.74       9.74        
H           116.04      47.09       14.11       
H           116.47      49.05       12.73       
H           113.28      52.66       8.73        
H           113.76      54.8        7.69        
C           115.4       47.37       13.3        
N           113.32      46.96       12.14       
C           114.24      46.6        13.01       
C           117.3       58.36       7.55        
C           116.03      58.31       7.02        
S           117.74      56.9        8.34        
H           114.52      56.73       6.67        
H           115.55      59.08       6.48        
C           115.43      57.04       7.16        
C           116.23      56.19       7.9         
C           125.54      65.1        4.66        
N           124.31      65.63       4.76        
C           125.84      63.83       5.1         
C           123.38      64.87       5.28        
C           123.5       63.5        5.69        
C           122.19      63.0        6.14        
C           121.26      64.17       5.98        
N           122.03      65.24       5.57        
C           121.69      61.77       6.62        
C           122.6       60.62       7.09        
N           121.8       59.65       7.66        
C           120.49      59.91       7.54        
C           119.03      61.38       6.44        
C           120.4       61.11       6.86        
C           124.81      63.05       5.57        
O           123.8       60.63       7.18        
O           120.06      64.24       6.08        
C           122.26      58.63       8.59        
C           121.55      66.61       5.63        
H           122.29      67.22       6.06        
H           121.3597    66.99764    4.62919     
H           120.63      66.6        6.21        
H           121.6       57.78       8.5         
H           122.41775   59.02437    9.59384     
H           123.22      58.42       8.26        
H           116.96      60.75       6.41        
H           118.81      62.24       5.73        
H           124.95      62.05       5.85        
H           126.82      63.41       5.13        
C           118.01      60.52       6.72        
N           119.5       59.1        7.84        
C           118.28      59.43       7.49        
C           128.82      67.11       3.92        
C           127.72      67.98       3.74        
S           128.31      65.64       4.64        
H           125.46      67.78       3.8         
H           127.78      68.95       3.29        
C           126.46      67.31       3.96        
C           126.64      66.01       4.41        
C           139.72      68.78       5.61        
N           139.01      69.8        5.11        
C           139.3       67.52       5.69        
C           137.68      69.59       4.95        
C           137.01      68.32       4.97        
C           135.61      68.6        4.72        
C           135.49      70.07       4.46        
N           136.8       70.57       4.57        
C           134.46      67.82       4.73        
C           134.47      66.32       5.13        
N           133.19      65.79       5.13        
C           132.34      66.81       4.65        
C           132.2       68.95       3.86        
C           133.06      67.98       4.38        
C           137.94      67.29       5.34        
O           135.4       65.57       5.42        
O           134.49      70.77       4.3         
C           133.06      64.38       4.8         
C           137.08      71.95       4.61        
H           137.96      72.15       3.99        
H           137.32488   72.32452    5.60392     
H           136.17      72.5        4.16        
H           134.02      63.91       4.6         
H           132.58013   63.76604    5.56215     
H           132.45      64.43       3.8         
H           130.27      69.52       3.3         
H           132.56      69.91       3.67        
H           137.6       66.29       5.39        
H           139.91      66.71       5.98        
C           130.8       68.67       3.68        
N           131.02      66.45       4.51        
C           130.23      67.42       3.98        
C           143.25      70.1        6.03        
C           143.05      69.21       6.99        
S           141.91      70.25       4.98        
H           141.37      67.88       7.66        
H           143.82      68.98       7.78        
C           141.75      68.61       6.96        
C           141.02      69.21       6.0         
C           153.66      74.0        5.12        
N           152.75      74.38       4.23        
C           153.29      73.22       6.19        
C           151.48      73.99       4.45        
C           150.99      73.11       5.45        
C           149.5       73.12       5.26        
C           149.25      73.92       4.04        
N           150.46      74.34       3.52        
C           148.49      72.36       5.83        
C           148.85      71.39       7.02        
N           147.68      70.78       7.42        
C           146.58      71.11       6.51        
C           146.08      72.39       4.68        
C           147.05      72.01       5.56        
C           152.01      72.64       6.24        
O           149.79      71.36       7.79        
O           148.2       74.32       3.66        
C           147.62      69.84       8.55        
C           150.59      75.12       2.33        
H           151.62      75.5        2.17        
H           150.31695   74.63691    1.39183     
H           149.89      75.97       2.35        
H           147.23      68.85       8.3         
H           147.05762   70.25476    9.38654     
H           148.67      69.72       8.91        
H           144.03      72.14       4.07        
H           146.18      73.07       3.94        
H           151.81      71.88       6.97        
H           154.02      72.75       6.87        
C           144.78      71.8        4.83        
N           145.41      70.56       6.63        
C           144.44      70.83       5.78        
C           157.51      74.57       4.94        
C           156.96      75.54       4.12        
S           156.28      73.53       5.57        
H           154.85      76.21       3.6         
H           157.43      76.27       3.49        
C           155.49      75.5        4.12        
C           155.01      74.48       4.91        
H           49.44       15.46       48.13       
H           158.52      74.31       4.87        
