392

C           49.22       11.49       30.76       
N           49.42       10.61       29.71       
C           47.97       11.93       31.14       
C           48.28       10.28       29.1        
C           46.96       10.69       29.39       
C           46.05       10.19       28.35       
C           47.01       9.32        27.44       
N           48.29       9.43        28.01       
C           44.67       10.28       28.07       
C           43.73       11.18       28.79       
N           42.49       11.16       28.25       
C           42.48       10.39       27.13       
C           43.73       8.69        26.09       
C           43.73       9.7         27.06       
C           46.85       11.55       30.41       
O           43.9        11.81       29.89       
O           46.83       8.73        26.44       
C           41.36       11.87       28.72       
C           49.46       8.85        27.41       
H           50.32       9.47        27.59       
H           49.58138    7.84327     27.80983    
H           49.18       8.77        26.37       
H           40.44       11.3        28.66       
H           41.37408    12.8834     28.31886    
H           41.56       11.99       29.78       
H           42.93       7.77        24.41       
H           44.52       8.02        25.92       
H           45.89       11.94       30.76       
H           47.86       12.61       31.9        
C           42.71       8.5         25.18       
N           41.39       10.12       26.35       
C           41.55       9.22        25.31       
C           52.87       11.91       32.31       
C           52.01       12.61       33.07       
S           51.92       11.06       31.11       
H           49.83       13.19       33.12       
H           52.32       13.32       33.82       
C           50.65       12.59       32.63       
C           50.44       11.77       31.55       
C           63.91       12.26       33.35       
N           63.32       11.24       32.76       
C           63.19       13.27       34.07       
C           62.0        11.21       32.8        
C           61.11       12.18       33.37       
C           59.8        11.7        33.02       
C           60.01       10.4        32.3        
N           61.35       10.1        32.27       
C           58.47       12.17       33.26       
C           58.21       13.26       34.33       
N           56.84       13.44       34.44       
C           56.19       12.66       33.44       
C           56.54       11.0        31.75       
C           57.1        11.87       32.72       
C           61.74       13.23       34.02       
O           58.99       13.78       35.08       
O           59.17       9.62        31.83       
C           56.25       13.94       35.66       
C           62.0        9.03        31.46       
H           62.37       9.58        30.61       
H           62.7591     8.41988     31.94951    
H           61.18       8.43        30.99       
H           55.49       13.3        36.16       
H           55.86707    14.9565     35.56949    
H           57.06       14.04       36.4        
H           54.55       10.4        30.85       
H           57.08       10.26       31.16       
H           61.09       13.9        34.5        
H           63.73       14.0        34.65       
C           55.06       11.03       31.61       
N           54.9        12.66       33.29       
C           54.3        11.88       32.37       
C           67.62       13.33       32.91       
C           67.55       11.96       32.61       
S           66.21       13.9        33.67       
H           65.95       10.5        32.34       
H           68.33       11.43       32.04       
C           66.24       11.44       32.75       
C           65.38       12.4        33.18       
C           75.83       20.61       32.87       
N           76.01       19.47       32.28       
C           74.64       21.01       33.53       
C           74.94       18.78       32.22       
C           73.61       19.11       32.68       
C           72.79       17.89       32.44       
C           73.75       16.92       31.77       
N           74.98       17.55       31.56       
C           71.52       17.51       32.8        
C           70.46       18.52       33.23       
N           69.3        17.83       33.27       
C           69.42       16.41       33.05       
C           71.07       14.82       32.52       
C           70.8        16.17       32.76       
C           73.5        20.29       33.38       
O           70.53       19.74       33.26       
O           73.51       15.82       31.43       
C           68.02       18.55       33.35       
C           76.0        17.18       30.56       
H           75.89       16.15       30.28       
H           75.98573    17.83622    29.68979    
H           77.0        17.29       31.07       
H           67.33       18.13       32.62       
H           67.55839    18.42927    34.33002    
H           68.16       19.56       33.03       
H           70.21       12.8        32.68       
H           72.05       14.48       32.57       
H           72.63       20.57       33.93       
H           74.61       21.97       34.12       
C           70.03       13.88       32.63       
N           68.45       15.58       33.12       
C           68.77       14.28       32.89       
C           79.45       22.09       32.36       
C           78.79       23.02       32.97       
S           78.48       20.69       32.13       
H           76.75       23.36       33.78       
H           79.24       24.02       33.12       
C           77.45       22.67       33.29       
C           77.11       21.42       32.86       
C           88.63       21.61       26.29       
N           88.41       22.74       26.96       
C           87.86       20.5        26.39       
C           87.23       22.78       27.6        
C           86.35       21.66       27.78       
C           85.22       22.1        28.64       
C           85.58       23.56       28.9        
N           86.69       23.93       28.22       
C           84.1        21.51       29.2        
C           83.69       20.07       28.99       
N           82.63       19.76       29.81       
C           82.23       20.85       30.52       
C           82.73       23.19       30.96       
C           83.1        21.94       30.25       
C           86.69       20.5        27.09       
O           84.14       19.28       28.24       
O           85.04       24.41       29.57       
C           81.79       18.62       29.65       
C           87.34       25.21       28.39       
H           88.25       25.01       28.93       
H           87.54015    25.76756    27.47503    
H           86.84       25.88       29.11       
H           82.01       18.1        28.72       
H           81.91637    17.8758     30.43632    
H           80.74       18.94       29.57       
H           81.24       24.27       32.19       
H           83.28       24.12       30.8        
H           86.03       19.64       27.09       
H           88.11       19.64       25.85       
C           81.52       23.25       31.71       
N           81.14       20.84       31.32       
C           80.83       22.07       31.83       
C           91.55       22.35       23.86       
C           91.59       21.01       24.07       
S           90.22       23.08       24.65       
H           90.56       19.53       25.42       
H           92.4        20.35       23.7        
C           90.64       20.63       25.1        
C           89.83       21.64       25.5        
C           96.93       29.69       17.51       
N           97.62       28.58       17.85       
C           95.62       29.93       17.98       
C           96.96       27.66       18.59       
C           95.62       27.8        19.1        
C           95.28       26.65       19.95       
C           96.5        25.77       19.85       
N           97.47       26.54       19.19       
C           94.27       26.3        20.83       
C           93.3        27.32       21.47       
N           92.53       26.76       22.4        
C           92.83       25.42       22.45       
C           94.08       23.63       21.36       
C           93.82       25.01       21.5        
C           94.92       28.97       18.67       
O           93.42       28.52       21.27       
O           96.8        24.79       20.52       
C           91.17       27.21       22.62       
C           98.83       26.2        19.0        
H           99.32       25.92       19.97       
H           99.01732    25.63804    18.08501    
H           99.22       27.24       18.92       
H           90.89       27.08       23.67       
H           90.46027    26.85155    21.87442    
H           91.21       28.34       22.46       
H           93.31       21.71       21.97       
H           94.84       23.3        20.66       
H           93.92       29.23       19.0        
H           95.11       30.88       17.69       
C           93.27       22.76       22.1        
N           92.08       24.58       23.15       
C           92.31       23.26       23.02       
C           99.41       31.46       15.09       
C           98.62       32.47       15.62       
S           99.02       29.92       15.73       
H           96.8        32.46       17.0        
H           98.76       33.52       15.47       
C           97.66       31.92       16.52       
C           97.71       30.55       16.69       
C           109.49      33.7        10.83       
N           108.95      32.51       10.69       
C           108.71      34.78       11.32       
C           107.7       32.37       11.11       
C           106.8       33.33       11.75       
C           105.55      32.6        12.03       
C           105.89      31.16       11.52       
N           107.19      31.06       11.1        
C           104.34      32.91       12.63       
C           103.99      34.36       13.11       
N           102.66      34.38       13.52       
C           102.22      33.06       13.67       
C           102.75      30.85       13.23       
C           103.15      32.17       13.12       
C           107.45      34.6        11.94       
O           104.73      35.33       13.11       
O           105.1       30.24       11.48       
C           102.01      35.58       14.09       
C           107.76      29.95       10.32       
H           108.36      30.45       9.52        
H           108.40524   29.34639    10.9583     
H           107.07      29.29       9.88        
H           102.55      35.95       14.91       
H           101.88888   36.35659    13.33479    
H           101.11      35.22       14.69       
H           101.06      29.58       13.98       
H           103.31      30.01       12.92       
H           107.0       35.39       12.46       
H           109.1       35.81       11.33       
C           101.41      30.61       13.82       
N           101.09      32.91       14.28       
C           100.65      31.6        14.35       
C           113.03      34.93       9.4         
C           112.81      33.64       8.98        
S           111.61      35.43       10.27       
H           111.39      32.0        9.43        
H           113.41      33.13       8.26        
C           111.67      33.02       9.6         
C           110.84      33.88       10.24       
C           121.46      40.64       4.83        
N           120.66      41.23       5.8         
C           121.06      39.44       4.28        
C           119.61      40.61       6.26        
C           119.08      39.39       5.78        
C           117.93      38.96       6.62        
C           117.87      40.11       7.65        
N           118.84      41.03       7.36        
C           116.93      37.95       6.65        
C           116.86      36.9        5.54        
N           115.95      35.89       5.81        
C           115.39      36.19       7.05        
C           115.38      37.78       8.88        
C           115.93      37.44       7.61        
C           119.86      38.83       4.74        
O           117.37      36.97       4.44        
O           117.18      40.31       8.66        
C           115.67      34.73       4.98        
C           119.22      42.22       8.2         
H           120.32      42.42       8.15        
H           118.64652   43.07668    7.846       
H           119.07      41.81       9.19        
H           114.64      34.44       5.05        
H           116.36024   33.91119    5.18301     
H           115.85      35.06       3.93        
H           114.16      37.14       10.52       
H           115.83      38.56       9.47        
H           119.52      37.84       4.31        
H           121.67      38.88       3.56        
C           114.54      36.88       9.55        
N           114.55      35.45       7.68        
C           113.97      35.89       8.83        
C           124.77      42.78       4.72        
C           124.86      41.98       3.58        
S           123.29      42.64       5.53        
H           123.62      40.32       2.79        
H           125.83      41.66       3.17        
C           123.69      41.13       3.48        
C           122.72      41.41       4.48        
C           131.29      50.23       9.52        
N           131.87      49.12       9.03        
C           129.93      50.49       9.39        
C           131.09      48.17       8.56        
C           129.69      48.22       8.5         
C           129.24      46.98       7.92        
C           130.51      46.23       7.66        
N           131.58      46.98       8.19        
C           128.0       46.46       7.72        
C           126.79      46.9        8.48        
N           125.7       46.13       8.06        
C           126.07      45.31       6.99        
C           127.92      44.64       5.72        
C           127.47      45.43       6.79        
C           129.16      49.43       8.88        
O           126.65      47.68       9.37        
O           130.73      45.09       7.35        
C           124.38      46.28       8.68        
C           132.63      46.3        9.02        
H           132.13      45.6        9.71        
H           133.38125   45.75938    8.44428     
H           133.06      47.08       9.71        
H           124.05      45.3        8.75        
H           123.66767   46.88059    8.11433     
H           124.47      46.62       9.73        
H           127.5       43.23       4.27        
H           128.89      44.86       5.26        
H           128.09      49.52       8.77        
H           129.44      51.32       9.9         
C           127.05      43.72       5.09        
N           125.27      44.54       6.32        
C           125.73      43.73       5.35        
C           134.34      52.14       11.06       
C           133.24      52.91       11.1        
S           133.9       50.52       10.55       
H           131.2       52.9        10.37       
H           133.35      53.97       11.41       
C           132.11      52.32       10.56       
C           132.28      51.05       10.15       
C           143.84      57.48       13.56       
N           143.81      56.21       13.08       
C           142.6       58.05       13.74       
C           142.67      55.62       12.83       
C           141.35      56.11       13.04       
C           140.4       55.03       12.59       
C           141.27      53.97       12.07       
N           142.58      54.29       12.31       
C           139.0       54.82       12.67       
C           138.13      55.7        13.52       
N           136.78      55.32       13.3        
C           136.8       54.22       12.51       
C           138.02      52.83       11.0        
C           138.04      53.87       12.0        
C           141.35      57.44       13.53       
O           138.46      56.59       14.3        
O           141.04      52.85       11.78       
C           135.76      56.03       13.95       
C           143.74      53.59       11.74       
H           144.59      53.59       12.39       
H           144.11326   54.07594    10.83854    
H           143.53      52.53       11.68       
H           136.07      56.28       15.01       
H           135.43307   56.88728    13.36153    
H           135.01      55.27       14.1        
H           136.77      51.37       9.93        
H           138.93      52.61       10.44       
H           140.38      57.97       13.7        
H           142.6       59.03       14.2        
C           136.84      52.13       10.75       
N           135.66      53.58       12.3        
C           135.73      52.58       11.39       
C           147.47      58.78       13.43       
C           146.87      59.49       14.39       
S           146.39      57.67       12.71       
H           144.86      59.56       15.28       
H           147.32      60.23       14.96       
C           145.53      59.15       14.57       
C           145.11      58.16       13.77       
C           158.29      58.15       11.47       
N           157.47      57.71       10.49       
C           157.84      58.61       12.66       
C           156.17      57.83       10.68       
C           155.55      58.38       11.89       
C           154.07      58.35       11.58       
C           153.97      57.49       10.31       
N           155.24      57.32       9.81        
C           152.94      58.82       12.28       
C           153.14      59.77       13.52       
N           151.89      60.04       14.06       
C           150.89      59.47       13.27       
C           150.53      58.28       11.23       
C           151.48      58.78       12.16       
C           156.42      58.66       12.95       
O           154.09      60.27       13.97       
O           153.01      57.08       9.63        
C           151.67      60.95       15.14       
C           155.59      56.61       8.65        
H           154.9       55.78       8.49        
H           155.65916   57.23242    7.75786     
H           156.56      56.15       8.84        
H           150.78      60.61       15.77       
H           151.61299   61.98336    14.79792    
H           152.6       60.95       15.74       
H           148.41      58.09       10.89       
H           150.81      58.03       10.22       
H           156.05      59.08       13.83       
H           158.51      58.86       13.46       
C           149.18      58.32       11.63       
N           149.66      59.5        13.68       
C           148.78      58.84       12.88       
C           161.81      57.26       10.05       
C           161.97      58.12       11.17       
S           160.13      57.08       9.74        
H           160.76      58.95       12.86       
H           162.93      58.37       11.52       
C           160.78      58.45       11.92       
C           159.69      58.08       11.14       
H           40.67       8.78        24.82       
H           162.6       56.53       9.77        
