392

C           44.91       5.87        20.44       
N           45.28       4.86        19.57       
C           43.71       6.42        20.41       
C           44.35       4.45        18.75       
C           43.05       5.03        18.61       
C           42.29       4.2         17.59       
C           43.36       3.36        16.99       
N           44.46       3.37        17.86       
C           40.9        4.01        17.25       
C           39.82       4.95        17.78       
N           38.64       4.68        17.15       
C           38.81       3.63        16.24       
C           40.42       2.15        15.37       
C           40.17       3.16        16.26       
C           42.75       6.04        19.5        
O           39.9        5.76        18.63       
O           43.34       2.63        15.93       
C           37.33       5.06        17.68       
C           45.61       2.51        17.81       
H           46.5        2.96        18.31       
H           45.38474    1.49293     18.13082    
H           45.93       2.46        16.8        
H           36.8        4.14        17.94       
H           36.77779    5.70175     16.99347    
H           37.59       5.65        18.58       
H           39.75       0.93        13.77       
H           41.44       1.79        15.14       
H           41.8        6.58        19.52       
H           43.44       7.1         21.18       
C           39.45       1.66        14.53       
N           37.9        3.2         15.41       
C           38.23       2.28        14.5        
C           48.15       6.75        22.3        
C           47.17       7.35        23.02       
S           47.59       5.92        20.84       
H           44.85       7.13        22.86       
H           47.29       7.88        23.95       
C           45.86       6.96        22.5        
C           45.98       6.16        21.39       
C           58.68       9.44        23.78       
N           58.34       8.18        23.34       
C           57.66       10.26       24.38       
C           57.14       7.82        23.35       
C           56.05       8.57        23.71       
C           54.87       7.71        23.5        
C           55.42       6.52        22.77       
N           56.77       6.56        22.88       
C           53.48       7.91        23.62       
C           52.93       8.92        24.63       
N           51.57       8.88        24.66       
C           51.12       7.9         23.81       
C           51.89       6.27        22.13       
C           52.23       7.31        23.06       
C           56.31       9.86        24.23       
O           53.52       9.77        25.3        
O           54.84       5.53        22.41       
C           50.91       9.95        25.39       
C           57.72       5.53        22.63       
H           57.32       4.5         22.59       
H           58.25199    5.76408     21.70789    
H           58.4        5.54        23.54       
H           49.91       9.75        25.74       
H           50.91       10.87831    24.81873    
H           51.55       10.14       26.36       
H           50.34       5.34        21.21       
H           52.59       5.65        21.66       
H           55.54       10.54       24.6        
H           57.87       11.17       24.94       
C           50.53       6.12        21.91       
N           49.82       7.74        23.49       
C           49.52       6.82        22.54       
C           62.24       10.85       23.35       
C           62.34       9.47        23.45       
S           60.62       11.38       23.6        
H           60.92       7.85        23.94       
H           63.27       8.99        23.43       
C           61.11       8.86        23.77       
C           60.1        9.71        23.76       
C           68.64       19.2        20.04       
N           68.8        17.96       19.6        
C           67.68       19.46       20.98       
C           68.04       17.03       19.99       
C           66.91       17.19       20.9        
C           66.31       15.86       21.1        
C           67.24       14.96       20.27       
N           68.16       15.75       19.67       
C           65.22       15.4        21.78       
C           64.22       16.23       22.52       
N           63.2        15.41       22.93       
C           63.54       14.12       22.73       
C           65.29       12.68       22.02       
C           64.82       14.02       22.09       
C           66.82       18.49       21.4        
O           64.21       17.4        22.65       
O           67.13       13.8        20.03       
C           62.22       15.94       23.91       
C           69.31       15.21       19.02       
H           69.45       14.17       19.25       
H           69.29586    15.34432    17.9384     
H           70.15       15.67       19.43       
H           61.47       15.18       24.14       
H           62.65654    16.35541    24.81828    
H           61.88       16.76       23.33       
H           64.86       10.62       22.49       
H           66.3        12.47       21.7        
H           66.05       18.81       22.05       
H           67.5        20.5        21.34       
C           64.51       11.63       22.56       
N           62.75       13.1        23.09       
C           63.25       11.88       23.03       
C           72.08       20.55       18.99       
C           71.32       21.61       19.25       
S           71.24       19.08       19.24       
H           69.14       21.98       19.87       
H           71.64       22.67       19.15       
C           70.0        21.31       19.66       
C           69.81       19.98       19.62       
C           82.76       18.64       15.84       
N           82.28       19.86       15.85       
C           82.0        17.61       16.31       
C           80.95       19.98       15.98       
C           79.99       19.0        16.34       
C           78.69       19.66       16.66       
C           78.98       21.09       16.18       
N           80.34       21.21       15.82       
C           77.51       19.27       17.28       
C           77.17       17.85       17.72       
N           75.82       17.71       18.06       
C           75.28       18.97       18.23       
C           75.63       21.24       17.79       
C           76.2        19.93       17.76       
C           80.59       17.71       16.46       
O           77.74       16.81       17.59       
O           78.29       22.07       16.25       
C           75.03       16.45       17.95       
C           80.91       22.36       15.18       
H           82.04       22.37       15.21       
H           80.63163    22.51703    14.13791    
H           80.44       23.2        15.76       
H           75.38       15.81       17.19       
H           74.95991    15.96635    18.92431    
H           73.99       16.63       17.74       
H           73.97       22.51       18.28       
H           76.27       22.04       17.46       
H           79.95       16.9        16.74       
H           82.52       16.69       16.54       
C           74.35       21.48       18.28       
N           74.02       19.16       18.64       
C           73.51       20.42       18.64       
C           86.59       19.36       15.42       
C           86.49       17.97       15.56       
S           85.03       20.13       15.61       
H           84.78       16.56       15.65       
H           87.31       17.29       15.43       
C           85.06       17.59       15.63       
C           84.2        18.62       15.65       
C           94.37       26.87       17.65       
N           94.68       25.57       17.53       
C           93.14       27.4        17.21       
C           93.71       24.76       17.1        
C           92.38       25.09       16.68       
C           91.71       23.77       16.38       
C           92.75       22.76       16.7        
N           93.91       23.44       17.14       
C           90.44       23.4        15.98       
C           89.29       24.36       16.19       
N           88.09       23.69       15.87       
C           88.34       22.39       15.64       
C           90.04       20.81       15.33       
C           89.73       22.16       15.67       
C           92.11       26.47       16.79       
O           89.22       25.55       16.67       
O           92.75       21.57       16.61       
C           86.89       24.43       15.61       
C           95.17       22.76       17.52       
H           94.96       21.71       17.54       
H           95.97533    22.85025    16.79103    
H           95.4        23.05       18.54       
H           86.0        23.74       15.84       
H           86.7552     24.57899    14.53868    
H           86.8        25.31       16.21       
H           89.31       18.8        15.17       
H           91.01       20.57       15.26       
H           91.12       26.88       16.65       
H           93.02       28.47       17.15       
C           89.04       19.82       15.25       
N           87.35       21.55       15.47       
C           87.71       20.25       15.4        
C           97.68       28.94       18.12       
C           96.61       29.76       18.28       
S           97.17       27.3        17.77       
H           94.36       29.55       18.41       
H           96.63       30.86       18.39       
C           95.35       29.04       18.23       
C           95.5        27.72       18.03       
C           107.85      32.58       15.09       
N           107.71      31.42       15.7        
C           106.79      33.4        15.01       
C           106.47      30.98       15.98       
C           105.25      31.68       15.91       
C           104.17      30.8        16.5        
C           104.92      29.52       16.82       
N           106.24      29.72       16.53       
C           102.83      31.0        16.72       
C           102.15      32.36       16.48       
N           100.84      32.29       16.74       
C           100.51      31.02       17.11       
C           101.42      28.84       17.47       
C           101.66      30.18       17.1        
C           105.49      32.97       15.39       
O           102.67      33.45       16.26       
O           104.55      28.53       17.48       
C           99.96       33.27       16.31       
C           107.23      28.8        16.93       
H           106.89      28.22       17.77       
H           107.69673   28.31206    16.07433    
H           108.02      29.37       17.34       
H           99.03       32.81       16.04       
H           99.64923    34.03986    17.01629    
H           100.36      33.65       15.37       
H           99.89       27.34       18.08       
H           102.24      28.22       17.5        
H           104.67      33.64       15.23       
H           106.83      34.37       14.55       
C           100.09      28.4        17.83       
N           99.26       30.6        17.34       
C           99.06       29.32       17.81       
C           111.02      34.34       13.67       
C           111.33      33.05       13.99       
S           109.31      34.55       13.91       
H           110.42      31.22       14.93       
H           112.35      32.67       13.95       
C           110.3       32.28       14.53       
C           109.13      32.93       14.55       
C           116.78      42.99       9.96        
N           117.36      41.8        10.07       
C           115.47      43.24       10.4        
C           116.63      40.83       10.53       
C           115.22      40.92       10.8        
C           114.89      39.55       11.28       
C           116.19      38.75       11.16       
N           117.17      39.6        10.73       
C           113.7       38.94       11.65       
C           112.35      39.67       11.82       
N           111.37      38.8        12.33       
C           111.93      37.61       12.58       
C           113.76      36.31       12.09       
C           113.23      37.62       12.1        
C           114.62      42.18       10.89       
O           112.03      40.68       11.36       
O           116.56      37.64       11.55       
C           110.06      39.26       12.81       
C           118.6       39.31       10.66       
H           119.1       40.06       10.06       
H           119.03257   39.17046    11.65072    
H           118.64      38.42       10.06       
H           109.9       38.86       13.81       
H           109.23518   39.10083    12.11542    
H           110.2       40.35       12.94       
H           113.57      34.2        12.64       
H           114.71      36.02       11.61       
H           113.61      42.3        11.25       
H           115.25      44.33       10.61       
C           113.08      35.21       12.69       
N           111.25      36.63       13.14       
C           111.81      35.43       13.14       
C           119.96      45.18       9.59        
C           118.89      45.94       9.24        
S           119.39      43.53       9.81        
H           116.67      45.9        9.2         
H           118.93      46.98       8.94        
C           117.62      45.32       9.38        
C           117.74      43.99       9.73        
C           130.88      46.89       11.25       
N           130.11      47.9        10.73       
C           130.36      45.72       11.67       
C           128.81      47.65       10.67       
C           128.11      46.46       11.05       
C           126.68      46.66       10.67       
C           126.65      48.05       10.1        
N           127.93      48.58       10.09       
C           125.54      45.8        10.62       
C           125.57      44.3        11.02       
N           124.3       43.79       10.95       
C           123.42      44.75       10.51       
C           123.16      46.99       10.0        
C           124.08      45.99       10.35       
C           129.01      45.44       11.58       
O           126.49      43.62       11.51       
O           125.7       48.72       9.64        
C           123.96      42.55       11.66       
C           128.21      49.74       9.36        
H           127.43      49.92       8.59        
H           128.33777   50.56339    10.06272    
H           129.12      49.49       8.78        
H           123.18      42.05       11.1        
H           123.48499   42.72993    12.62441    
H           124.89      41.93       11.81       
H           121.23      47.62       9.56        
H           123.48      48.04       10.02       
H           128.63      44.5        11.91       
H           131.06      44.96       12.04       
C           121.78      46.74       9.71        
N           122.15      44.46       10.28       
C           121.29      45.46       9.9         
C           134.63      47.78       10.37       
C           134.69      46.91       11.41       
S           132.97      48.16       9.94        
H           133.27      45.56       12.32       
H           135.64      46.47       11.83       
C           133.37      46.41       11.73       
C           132.33      47.07       11.12       
C           143.38      54.22       8.9         
N           142.44      54.15       7.95        
C           143.31      53.42       10.07       
C           141.5       53.24       8.13        
C           141.25      52.41       9.27        
C           140.03      51.65       9.03        
C           139.66      52.04       7.65        
N           140.47      53.01       7.25        
C           139.31      50.71       9.73        
C           139.8       50.07       11.04       
N           138.9       49.07       11.33       
C           137.81      49.15       10.52       
C           136.93      50.22       8.59        
C           138.0       50.15       9.48        
C           142.28      52.49       10.26       
O           140.77      50.2        11.78       
O           138.81      51.69       6.95        
C           138.98      48.16       12.45       
C           140.55      53.61       5.94        
H           141.56      53.51       5.53        
H           140.30125   54.67083    5.91074     
H           139.89      53.06       5.31        
H           137.97      48.09       12.93       
H           139.49081   47.23771    12.17331    
H           139.67      48.54       13.25       
H           134.88      49.58       8.19        
H           136.84      50.99       7.87        
H           142.34      51.74       11.01       
H           144.05      53.53       10.86       
C           135.78      49.4        8.81        
N           136.7       48.48       10.76       
C           135.73      48.53       9.87        
C           145.91      56.74       7.48        
C           146.14      56.69       8.83        
S           144.7       55.64       6.98        
H           145.19      55.66       10.59       
H           146.91      57.34       9.27        
C           145.2       55.85       9.52        
C           144.41      55.19       8.63        
C           149.72      65.19       1.62        
N           149.63      64.01       1.01        
C           149.21      65.39       2.92        
C           149.12      63.04       1.73        
C           148.72      63.08       3.07        
C           148.46      61.71       3.52        
C           148.68      60.96       2.29        
N           149.06      61.76       1.22        
C           148.02      61.13       4.71        
C           148.15      61.86       6.06        
N           147.88      60.89       6.98        
C           147.52      59.69       6.44        
C           146.93      58.66       4.39        
C           147.53      59.79       4.98        
C           148.68      64.32       3.59        
O           148.63      62.96       6.34        
O           148.46      59.81       2.09        
C           147.82      61.26       8.38        
C           149.76      61.38       0.04        
H           150.33      60.49       0.26        
H           149.16394   61.42207    -0.87162    
H           150.51      62.11       -0.08       
H           147.92      60.41       9.0         
H           146.87887   61.75866    8.61177     
H           148.57      62.0        8.55        
H           145.9       56.85       4.66        
H           146.51      58.78       3.39        
H           148.29      64.49       4.58        
H           149.22      66.3        3.43        
C           146.42      57.67       5.17        
N           147.08      58.69       7.18        
C           146.57      57.63       6.54        
C           150.4       68.42       -0.47       
C           151.1       67.43       -1.01       
S           149.55      67.88       0.98        
H           151.33      65.26       -0.8        
H           151.82      67.62       -1.87       
C           150.86      66.15       -0.47       
C           150.14      66.31       0.68        
H           37.66       2.43        13.56       
H           150.25      69.42       -0.84       
