392

C           117.64      13.19       0.32        
N           117.42      12.3        -0.59       
C           117.93      12.96       1.56        
C           117.64      11.08       -0.19       
C           118.03      10.61       1.08        
C           117.98      9.13        1.08        
C           117.67      8.83        -0.39       
N           117.42      10.02       -1.03       
C           118.27      8.21        2.02        
C           118.5       8.56        3.5         
N           118.81      7.34        4.19        
C           118.72      6.28        3.34        
C           118.39      5.65        1.08        
C           118.4       6.74        2.02        
C           118.19      11.64       1.97        
O           118.54      9.65        4.07        
O           117.46      7.77        -1.0        
C           118.79      7.33        5.65        
C           116.37      10.07       -2.04       
H           115.66      10.84       -1.75       
H           116.77868   10.18083    -3.04439    
H           115.95      9.06        -2.17       
H           119.64      6.66        5.96        
H           117.88075   6.92009     6.08972     
H           118.95      8.33        5.93        
H           118.61      3.47        0.81        
H           118.1       5.84        0.05        
H           118.57      11.58       3.0         
H           118.17      13.78       2.17        
C           118.67      4.32        1.51        
N           118.91      5.07        3.81        
C           118.89      4.1         2.86        
C           116.6       16.44       -1.54       
C           117.34      16.8        -0.54       
S           116.37      14.73       -1.53       
H           118.44      15.96       1.13        
H           117.61      17.86       -0.32       
C           117.72      15.78       0.28        
C           117.4       14.53       -0.17       
C           109.48      23.01       -6.78       
N           110.72      23.56       -6.43       
C           109.32      21.64       -6.75       
C           111.69      22.68       -6.07       
C           111.48      21.34       -5.74       
C           112.74      20.76       -5.12       
C           113.58      22.03       -5.04       
N           112.97      23.09       -5.63       
C           113.33      19.54       -4.82       
C           112.7       18.27       -5.35       
N           113.44      17.19       -4.82       
C           114.51      17.63       -4.14       
C           115.57      19.59       -3.3        
C           114.51      19.06       -4.07       
C           110.25      20.82       -6.11       
O           111.7       18.16       -5.96       
O           114.77      22.09       -4.67       
C           113.03      15.76       -5.03       
C           113.65      24.24       -6.17       
H           113.01      24.65       -6.92       
H           113.93922   25.03537    -5.48309    
H           114.59      23.87       -6.64       
H           112.93      15.28       -4.11       
H           113.73281   15.17432    -5.62257    
H           112.16      15.69       -5.66       
H           117.08      19.13       -1.96       
H           115.79      20.63       -3.22       
H           109.96      19.8        -5.82       
H           108.36      21.22       -6.98       
C           116.36      18.68       -2.6        
N           115.23      16.78       -3.44       
C           116.09      17.33       -2.57       
C           106.83      25.89       -7.41       
C           106.46      24.79       -8.09       
S           108.34      25.59       -6.6        
H           107.27      22.63       -8.45       
H           105.61      24.74       -8.72       
C           107.35      23.62       -7.97       
C           108.39      23.89       -7.11       
C           100.45      34.78       -6.03       
N           101.69      34.89       -5.67       
C           99.94       33.64       -6.5        
C           102.5       33.77       -5.76       
C           102.12      32.55       -6.34       
C           103.29      31.62       -6.42       
C           104.39      32.44       -5.7        
N           103.85      33.69       -5.48       
C           103.51      30.37       -7.0        
C           102.57      29.81       -8.06       
N           103.04      28.58       -8.39       
C           104.32      28.4        -7.85       
C           105.84      29.31       -6.25       
C           104.61      29.44       -6.97       
C           100.79      32.51       -6.84       
O           101.54      30.22       -8.56       
O           105.57      32.27       -5.65       
C           102.59      27.83       -9.5        
C           104.69      34.86       -5.14       
H           105.73      34.57       -4.86       
H           104.78326   35.6061     -5.92914    
H           104.15      35.38       -4.35       
H           103.42      27.27       -9.84       
H           101.75267   27.20021    -9.19942    
H           102.39      28.64       -10.22      
H           107.59      28.02       -5.82       
H           106.26      30.04       -5.57       
H           100.42      31.58       -7.18       
H           98.88       33.54       -6.63       
C           106.67      28.16       -6.36       
N           105.07      27.29       -8.0        
C           106.19      27.2        -7.27       
C           98.4        38.02       -4.98       
C           97.76       37.55       -6.04       
S           99.77       37.09       -4.52       
H           98.0        35.68       -7.22       
H           96.85       37.96       -6.56       
C           98.39       36.33       -6.48       
C           99.56       35.96       -5.83       
C           95.75       47.6        -0.3        
N           96.76       46.88       0.2         
C           95.11       47.13       -1.42       
C           97.15       45.9        -0.54       
C           96.6        45.33       -1.73       
C           97.32       44.06       -2.06       
C           98.36       43.96       -0.94       
N           98.15       45.04       -0.1        
C           97.16       43.04       -2.97       
C           96.31       43.2        -4.19       
N           96.54       42.18       -5.08       
C           97.3        41.25       -4.45       
C           98.65       40.78       -2.53       
C           97.82       41.69       -3.18       
C           95.48       46.03       -2.11       
O           95.48       44.04       -4.51       
O           99.21       43.17       -0.61       
C           95.99       42.04       -6.45       
C           98.85       45.24       1.2         
H           99.07       46.25       1.45        
H           98.23555    44.82331    1.99807     
H           99.81       44.65       1.12        
H           95.21       42.81       -6.62       
H           96.75704    42.06131    -7.22414    
H           95.45       41.12       -6.44       
H           99.19       38.67       -2.48       
H           99.16       41.01       -1.62       
H           94.89       45.77       -2.96       
H           94.18       47.75       -1.68       
C           98.77       39.51       -3.05       
N           97.49       40.14       -5.04       
C           98.2        39.24       -4.31       
C           95.1        50.7        2.02        
C           94.37       50.92       0.84        
S           95.98       49.19       1.94        
H           94.07       49.87       -1.07       
H           93.66       51.7        0.75        
C           94.54       49.8        -0.07       
C           95.39       48.84       0.36        
C           94.19       58.57       9.85        
N           95.01       57.5        10.11       
C           93.33       58.72       8.8         
C           95.01       56.58       9.16        
C           94.31       56.58       7.96        
C           94.75       55.31       7.24        
C           95.82       54.77       8.15        
N           95.9        55.51       9.28        
C           94.49       54.78       5.95        
C           93.46       55.43       5.07        
N           93.31       54.63       3.96        
C           94.07       53.47       4.07        
C           95.76       52.4        5.39        
C           94.86       53.48       5.23        
C           93.29       57.63       7.92        
O           92.84       56.46       5.25        
O           96.55       53.86       8.05        
C           92.75       55.14       2.73        
C           97.01       55.41       10.19       
H           97.49       56.36       10.36       
H           96.82835    54.85807    11.11221    
H           97.74       54.76       9.7         
H           92.71       54.28       2.02        
H           93.27918    55.95583    2.23756     
H           91.72       55.51       2.93        
H           96.57       50.69       4.37        
H           96.5        52.31       6.14        
H           92.61       57.6        7.12        
H           92.6        59.54       8.7         
C           95.82       51.48       4.29        
N           94.16       52.67       3.0         
C           95.02       51.62       3.14        
C           95.27       60.63       12.84       
C           94.26       61.34       12.24       
S           95.66       59.18       11.96       
H           92.88       61.05       10.59       
H           93.96       62.4        12.52       
C           93.68       60.67       11.17       
C           94.32       59.47       10.97       
C           100.91      64.51       21.59       
N           101.44      63.55       20.7        
C           99.72       65.15       21.24       
C           100.8       63.24       19.63       
C           99.58       63.8        19.22       
C           99.22       63.12       18.0        
C           100.32      62.09       17.79       
N           101.22      62.23       18.81       
C           98.1        63.1        17.15       
C           96.87       64.06       17.28       
N           95.97       63.81       16.32       
C           96.26       62.65       15.62       
C           97.81       60.89       15.62       
C           97.5        62.17       16.12       
C           99.09       64.83       20.02       
O           96.66       64.94       18.05       
O           100.62      61.39       16.85       
C           95.02       64.86       15.97       
C           102.24      61.2        19.13       
H           102.11      60.25       18.5        
H           103.22838   61.53908    18.81978    
H           102.26      60.94       20.21       
H           94.77       64.82       14.95       
H           94.04762    64.7456     16.44904    
H           95.52       65.8        16.18       
H           97.2        59.4        14.22       
H           98.63       60.34       16.01       
H           98.19       65.35       19.76       
H           99.17       65.84       21.89       
C           97.08       60.42       14.56       
N           95.51       62.2        14.64       
C           96.02       61.14       14.01       
C           102.83      64.24       25.05       
C           102.16      65.4        25.09       
S           102.69      63.55       23.42       
H           100.86      66.57       23.73       
H           101.99      65.97       26.04       
C           101.52      65.78       23.89       
C           101.67      64.81       22.84       
C           104.9       57.59       33.82       
N           104.99      57.14       32.54       
C           104.64      58.89       34.05       
C           104.84      58.03       31.52       
C           104.48      59.39       31.64       
C           104.31      59.94       30.26       
C           104.74      58.81       29.39       
N           105.18      57.81       30.2        
C           103.85      61.05       29.69       
C           103.31      62.14       30.55       
N           102.81      63.22       29.73       
C           103.14      62.9        28.43       
C           104.36      61.39       26.99       
C           103.93      61.71       28.36       
C           104.35      59.7        32.99       
O           103.12      62.13       31.72       
O           105.04      58.72       28.18       
C           101.8       64.18       30.17       
C           105.8       56.62       29.71       
H           105.64      56.49       28.59       
H           106.84414   56.495      29.99677    
H           105.18      55.8        30.15       
H           100.84      63.8        29.95       
H           101.94849   65.16995    29.73866    
H           101.95      64.26       31.27       
H           104.44      62.06       24.92       
H           104.87      60.51       26.69       
H           104.21      60.69       33.22       
H           104.56      59.25       35.07       
C           104.1       62.29       25.91       
N           102.79      63.73       27.41       
C           103.32      63.49       26.18       
C           105.8       54.38       35.72       
C           105.42      55.33       36.67       
S           105.67      54.96       34.12       
H           104.89      57.53       36.64       
H           105.43      55.11       37.77       
C           105.11      56.59       36.15       
C           105.19      56.52       34.78       
C           108.01      43.67       36.02       
N           107.73      44.28       37.18       
C           108.04      44.35       34.85       
C           107.57      45.6        37.3        
C           107.61      46.42       36.15       
C           107.35      47.81       36.63       
C           107.13      47.58       38.16       
N           107.26      46.24       38.44       
C           107.42      49.03       35.97       
C           107.79      49.15       34.53       
N           107.5       50.41       34.07       
C           106.92      51.15       35.1        
C           106.3       51.03       37.38       
C           106.9       50.36       36.33       
C           107.9       45.78       34.93       
O           108.27      48.36       33.69       
O           106.94      48.25       39.07       
C           107.67      50.91       32.72       
C           106.95      45.64       39.67       
H           106.91      44.55       39.66       
H           107.69174   45.78977    40.45453    
H           105.94      45.98       39.9        
H           107.98      51.99       32.7        
H           106.74787   50.74106    32.16391    
H           108.43      50.28       32.16       
H           105.51      52.9        37.99       
H           106.15      50.62       38.34       
H           107.84      46.21       33.94       
H           108.27      43.92       33.86       
C           105.96      52.37       37.16       
N           106.6       52.36       34.85       
C           106.09      53.0        35.9        
C           108.21      39.82       35.46       
C           107.85      39.98       36.75       
S           108.38      41.31       34.68       
H           107.59      41.71       38.04       
H           107.6       39.17       37.51       
C           107.67      41.3        37.08       
C           108.06      42.19       36.09       
C           111.1       30.72       29.91       
N           111.21      30.78       31.18       
C           110.51      31.71       29.22       
C           110.89      31.9        31.81       
C           110.36      33.06       31.23       
C           110.26      34.13       32.24       
C           110.79      33.41       33.43       
N           111.16      32.12       33.1        
C           109.85      35.5        32.24       
C           109.49      36.32       31.07       
N           109.23      37.61       31.47       
C           109.08      37.65       32.83       
C           109.33      36.29       34.76       
C           109.54      36.41       33.36       
C           109.98      32.82       29.9        
O           109.34      35.96       29.88       
O           111.05      33.83       34.54       
C           108.82      38.66       30.54       
C           111.45      31.2        34.19       
H           112.43      30.65       34.02       
H           110.65842   30.52151    34.50804    
H           111.68      31.7        35.04       
H           108.37      39.44       31.14       
H           109.582     39.06503    29.87411    
H           108.0       38.19       29.98       
H           108.96      37.34       36.54       
H           109.4       35.33       35.29       
H           109.66      33.67       29.33       
H           110.21      31.54       28.19       
C           108.96      37.46       35.49       
N           108.73      38.76       33.47       
C           108.66      38.61       34.81       
C           111.51      27.32       28.04       
C           112.28      27.36       29.17       
S           110.81      28.87       27.85       
H           112.77      28.73       30.94       
H           112.84      26.48       29.43       
C           112.27      28.56       29.93       
C           111.45      29.51       29.34       
C           109.3       20.34       19.53       
N           110.17      20.02       20.56       
C           108.73      21.59       19.6        
C           110.44      20.85       21.54       
C           109.99      22.14       21.66       
C           110.52      22.74       22.97       
C           111.57      21.7        23.32       
N           111.5       20.62       22.42       
C           110.39      23.97       23.65       
C           109.68      25.15       23.0        
N           109.7       26.23       23.91       
C           110.48      25.85       24.99       
C           111.65      24.23       26.11       
C           110.91      24.53       24.95       
C           109.15      22.5        20.59       
O           109.28      25.29       21.93       
O           112.33      21.74       24.25       
C           108.93      27.5        23.83       
C           112.0       19.32       22.78       
H           111.27      18.58       22.33       
H           113.00102   19.30539    22.3489     
H           112.01      19.21       23.86       
H           109.56      28.37       23.74       
H           108.23743   27.69081    24.64978    
H           108.44      27.62       22.9        
H           112.41      24.74       28.05       
H           112.0       23.16       26.21       
H           108.71      23.47       20.44       
H           107.95      21.8        18.9        
C           111.95      25.11       27.18       
N           110.55      26.69       26.02       
C           111.34      26.32       27.08       
C           108.85      17.23       17.28       
C           107.99      18.16       16.86       
S           109.8       17.84       18.63       
H           107.38      20.16       17.39       
H           107.35      18.03       15.99       
C           107.96      19.32       17.63       
C           108.93      19.34       18.57       
H           118.86      3.03        3.2         
H           109.17      16.29       16.81       
