392

C           46.36       19.57       13.63       
N           46.63       19.61       12.3        
C           45.08       19.37       14.16       
C           45.58       19.35       11.53       
C           44.25       19.08       11.85       
C           43.44       18.94       10.57       
C           44.56       18.9        9.55        
N           45.74       19.17       10.19       
C           42.14       18.65       10.22       
C           41.08       18.29       11.26       
N           39.92       18.04       10.65       
C           40.11       18.04       9.29        
C           41.76       18.16       7.54        
C           41.47       18.33       8.91        
C           44.01       19.02       13.26       
O           41.17       18.39       12.43       
O           44.59       18.79       8.37        
C           38.66       18.25       11.36       
C           46.9        19.11       9.36        
H           46.81       18.46       8.51        
H           47.18366    20.09572    8.99124     
H           47.74       18.67       9.93        
H           37.85       17.52       11.12       
H           38.31861    19.26735    11.16882    
H           38.87       18.21       12.46       
H           40.91       17.53       5.73        
H           42.74       18.37       7.26        
H           42.99       18.88       13.62       
H           44.81       19.4        15.21       
C           40.72       17.62       6.77        
N           39.15       17.6        8.48        
C           39.43       17.35       7.23        
C           49.88       20.98       14.8        
C           49.15       20.9        15.92       
S           49.0        20.45       13.43       
H           47.12       20.41       16.43       
H           49.53       21.17       16.87       
C           47.84       20.4        15.63       
C           47.61       19.99       14.36       
C           59.39       26.59       14.77       
N           58.9        26.21       13.58       
C           58.77       26.38       16.09       
C           57.75       25.58       13.63       
C           57.05       25.28       14.83       
C           55.89       24.34       14.47       
C           56.23       24.05       12.96       
N           57.14       25.04       12.55       
C           54.78       23.82       15.11       
C           54.33       24.37       16.48       
N           53.21       23.64       16.86       
C           52.79       22.79       15.81       
C           53.22       22.28       13.51       
C           53.64       22.87       14.7        
C           57.57       25.75       16.07       
O           54.86       25.2        17.18       
O           55.71       23.33       12.16       
C           52.43       23.87       18.05       
C           57.42       25.44       11.19       
H           57.53       24.66       10.47       
H           56.67748    26.17531    10.88002    
H           58.43       25.83       11.19       
H           51.76       22.98       18.39       
H           51.77209    24.73758    17.99939    
H           53.16       23.97       18.81       
H           51.53       21.24       12.53       
H           53.79       22.4        12.59       
H           57.11       25.52       16.98       
H           59.09       26.93       16.96       
C           51.95       21.65       13.47       
N           51.67       22.15       15.75       
C           51.23       21.56       14.67       
C           62.59       28.93       14.92       
C           62.32       28.6        13.64       
S           61.32       28.3        15.99       
H           60.99       27.34       12.6        
H           62.91       28.88       12.78       
C           61.28       27.69       13.53       
C           60.63       27.41       14.68       
C           70.63       34.03       20.3        
N           70.91       33.32       19.18       
C           69.28       34.18       20.65       
C           69.95       32.66       18.54       
C           68.63       32.67       18.96       
C           67.96       31.8        18.03       
C           68.94       31.32       17.04       
N           70.1        31.97       17.34       
C           66.72       31.21       18.05       
C           65.97       30.9        19.34       
N           64.75       30.31       18.92       
C           64.58       30.24       17.57       
C           65.8        30.77       15.49       
C           65.8        30.79       16.93       
C           68.26       33.44       20.08       
O           66.38       30.83       20.48       
O           68.86       30.62       16.05       
C           63.98       29.62       19.92       
C           71.33       31.92       16.58       
H           71.27       31.12       15.85       
H           71.55584    32.83748    16.03657    
H           72.14       31.71       17.31       
H           64.72       29.17       20.7        
H           63.10628    30.13025    20.32541    
H           63.57       28.77       19.42       
H           64.73       29.97       13.83       
H           66.75       30.87       14.93       
H           67.27       33.61       20.44       
H           69.04       34.8        21.5        
C           64.66       30.28       14.82       
N           63.45       29.87       16.96       
C           63.56       29.74       15.57       
C           74.15       34.42       21.8        
C           73.33       35.21       22.55       
S           73.19       33.5        20.68       
H           71.23       35.72       22.72       
H           73.72       35.76       23.47       
C           71.97       35.21       22.16       
C           71.82       34.42       21.06       
C           84.98       32.26       21.32       
N           84.55       33.2        22.18       
C           84.18       31.41       20.6        
C           83.27       33.18       22.45       
C           82.22       32.49       21.73       
C           80.9        33.0        22.14       
C           81.3        34.0        23.21       
N           82.69       34.03       23.42       
C           79.63       32.84       21.67       
C           79.23       31.8        20.55       
N           77.86       32.09       20.28       
C           77.34       32.97       21.18       
C           77.89       34.45       22.86       
C           78.36       33.49       22.02       
C           82.78       31.52       20.83       
O           79.91       31.1        19.78       
O           80.6        34.62       24.06       
C           77.35       31.75       18.97       
C           83.4        34.73       24.47       
H           83.01       35.71       24.61       
H           83.45461    34.12929    25.37789    
H           84.4        34.92       24.09       
H           78.1        31.63       18.14       
H           76.81583    30.80114    19.0192     
H           76.62       32.52       18.64       
H           76.07       35.54       23.62       
H           78.52       34.95       23.49       
H           82.12       30.97       20.19       
H           84.63       30.86       19.74       
C           76.43       34.82       22.83       
N           76.05       33.25       21.1        
C           75.59       34.24       21.87       
C           88.47       33.62       20.36       
C           88.43       32.41       19.82       
S           87.12       33.96       21.4        
H           86.77       30.9        19.51       
H           89.15       32.09       19.03       
C           87.13       31.83       19.98       
C           86.33       32.58       20.78       
C           96.75       40.8        20.52       
N           96.53       40.11       19.43       
C           95.86       40.79       21.58       
C           95.44       39.32       19.43       
C           94.43       39.26       20.42       
C           93.43       38.29       19.94       
C           93.98       37.74       18.64       
N           95.1        38.39       18.37       
C           92.15       37.81       20.38       
C           91.23       38.56       21.38       
N           89.99       37.92       21.41       
C           90.08       36.71       20.68       
C           91.64       35.38       19.57       
C           91.38       36.6        20.11       
C           94.65       40.02       21.55       
O           91.38       39.65       21.92       
O           93.44       37.03       17.82       
C           88.88       38.24       22.32       
C           95.93       38.28       17.17       
H           96.47       39.24       17.09       
H           96.71082    37.52028    17.20517    
H           95.22       38.01       16.4        
H           88.79       37.51       23.12       
H           87.9493     38.50197    21.81674    
H           89.22       39.08       22.99       
H           90.82       33.6        18.77       
H           92.61       35.19       19.19       
H           93.92       40.19       22.3        
H           96.1        41.29       22.5        
C           90.67       34.46       19.46       
N           89.19       35.73       20.72       
C           89.48       34.57       20.15       
C           100.11      42.46       19.35       
C           99.8        43.01       20.62       
S           98.79       41.48       18.79       
H           98.28       42.85       22.16       
H           100.43      43.73       21.12       
C           98.61       42.54       21.19       
C           97.93       41.65       20.36       
C           109.84      43.85       14.41       
N           109.08      42.76       14.07       
C           109.44      44.83       15.32       
C           107.98      42.55       14.83       
C           107.5       43.46       15.76       
C           106.24      42.85       16.24       
C           106.11      41.51       15.57       
N           107.12      41.47       14.63       
C           105.26      43.26       17.11       
C           105.48      44.34       18.21       
N           104.4       44.39       19.05       
C           103.42      43.56       18.53       
C           102.96      41.95       16.83       
C           103.9       42.85       17.4        
C           108.2       44.71       15.92       
O           106.53      44.93       18.42       
O           105.27      40.7        15.62       
C           104.2       45.37       20.1        
C           107.3       40.47       13.62       
H           106.96      39.47       13.92       
H           106.73427   40.77123    12.73835    
H           108.34      40.52       13.35       
H           103.13      45.49       20.22       
H           104.51482   45.12514    21.11441    
H           104.71      46.24       19.75       
H           101.01      40.95       17.09       
H           103.2       41.46       15.93       
H           107.81      45.47       16.54       
H           110.07      45.75       15.46       
C           101.67      41.77       17.45       
N           102.26      43.39       19.13       
C           101.35      42.52       18.62       
C           113.32      44.29       12.68       
C           112.55      43.61       11.82       
S           112.49      44.63       14.14       
H           110.51      42.75       11.71       
H           112.93      43.22       10.87       
C           111.25      43.27       12.33       
C           111.04      43.85       13.53       
C           124.12      46.92       12.82       
N           123.49      46.44       11.73       
C           123.43      47.09       13.99       
C           122.22      46.07       11.93       
C           121.4       46.15       13.04       
C           119.98      45.72       12.59       
C           120.22      45.19       11.2        
N           121.6       45.27       11.01       
C           118.77      45.66       13.23       
C           118.55      45.92       14.7        
N           117.21      45.68       14.92       
C           116.58      45.21       13.75       
C           116.79      44.97       11.4        
C           117.45      45.28       12.63       
C           122.05      46.73       14.08       
O           119.32      46.31       15.5        
O           119.68      44.32       10.47       
C           116.49      46.32       16.05       
C           122.17      44.77       9.78        
H           122.03      43.69       9.68        
H           121.81369   45.29356    8.89286     
H           123.25      44.82       9.79        
H           115.56      45.77       16.33       
H           116.33492   47.38442    15.87377    
H           117.2       46.12       16.81       
H           114.93      44.29       10.54       
H           117.29      44.8        10.48       
H           121.56      46.98       14.98       
H           123.84      47.61       14.89       
C           115.45      44.69       11.48       
N           115.29      44.93       13.86       
C           114.73      44.67       12.64       
C           127.63      47.66       11.35       
C           127.69      48.14       12.61       
S           126.07      47.07       10.91       
H           126.19      48.25       14.31       
H           128.61      48.38       13.12       
C           126.43      47.94       13.3        
C           125.49      47.39       12.53       
C           135.16      45.91       3.46        
N           135.43      46.67       4.51        
C           133.93      45.32       3.3         
C           134.5       46.85       5.4         
C           133.14      46.39       5.29        
C           132.42      46.92       6.49        
C           133.48      47.73       7.21        
N           134.68      47.7        6.45        
C           131.15      46.87       6.91        
C           129.95      46.29       6.08        
N           128.83      46.49       6.84        
C           129.14      47.04       8.11        
C           130.9       47.73       9.46        
C           130.54      47.22       8.17        
C           132.87      45.64       4.18        
O           129.88      45.99       4.91        
O           133.37      48.58       8.04        
C           127.52      45.91       6.51        
C           135.74      48.7        6.68        
H           135.34      49.67       6.93        
H           136.53782   48.33992    7.32955     
H           136.2       48.86       5.73        
H           126.63      46.38       7.03        
H           127.40112   44.83304    6.62888     
H           127.37      46.08       5.45        
H           130.28      48.17       11.42       
H           131.93      47.91       9.78        
H           131.95      45.06       4.08        
H           133.78      44.62       2.5         
C           129.94      47.8        10.46       
N           128.24      47.04       9.07        
C           128.59      47.53       10.32       
C           138.78      45.07       2.19        
C           137.88      44.57       1.3         
S           137.86      45.77       3.43        
H           135.64      44.67       0.88        
H           138.16      44.01       0.44        
C           136.51      44.86       1.57        
C           136.33      45.53       2.66        
C           149.78      44.66       1.48        
N           149.16      45.77       2.05        
C           149.04      43.61       0.89        
C           147.83      45.74       1.98        
C           147.0       44.74       1.42        
C           145.55      45.13       1.74        
C           145.75      46.48       2.43        
N           147.08      46.73       2.58        
C           144.3       44.64       1.44        
C           144.05      43.51       0.34        
N           142.69      43.33       0.19        
C           142.04      44.18       1.1         
C           142.39      45.5        3.06        
C           142.97      44.86       1.95        
C           147.63      43.62       0.87        
O           144.88      42.93       -0.27       
O           144.84      47.3        2.7         
C           142.04      42.33       -0.67       
C           147.6       47.68       3.5         
H           148.6       48.01       3.24        
H           147.47669   47.26655    4.50098     
H           147.07      48.52       3.34        
H           141.08      42.04       -0.21       
H           141.94963   42.69843    -1.69186    
H           142.69      41.41       -0.69       
H           140.55      46.19       3.87        
H           143.0       46.03       3.67        
H           147.1       42.78       0.48        
H           149.55      42.72       0.55        
C           141.02      45.57       3.16        
N           140.71      44.26       1.13        
C           140.25      44.92       2.24        
C           153.48      45.34       1.92        
C           153.37      44.31       1.07        
S           151.96      45.91       2.5         
H           151.82      43.24       0.02        
H           154.2       43.84       0.62        
C           152.05      44.01       0.73        
C           151.18      44.73       1.5         
C           162.84      49.39       6.09        
N           162.85      49.02       4.82        
C           161.7       49.34       6.86        
C           161.69      48.67       4.3         
C           160.41      48.66       4.98        
C           159.38      48.14       4.02        
C           160.24      47.84       2.85        
N           161.52      48.3        3.02        
C           158.06      47.91       4.1         
C           157.16      48.49       5.19        
N           155.81      48.18       4.93        
C           155.78      47.31       3.84        
C           157.08      46.47       1.97        
C           157.08      47.22       3.24        
C           160.46      48.94       6.37        
O           157.43      49.28       6.07        
O           159.92      47.62       1.7         
C           154.76      48.5        5.84        
C           162.54      47.85       2.11        
H           162.15      46.9        1.62        
H           162.76059   48.63272    1.3842      
H           163.45      47.67       2.73        
H           154.23      47.63       6.15        
H           154.06649   49.25071    5.46107     
H           155.18      48.88       6.77        
H           155.96      45.12       0.78        
H           157.95      46.38       1.35        
H           159.65      48.95       7.02        
H           161.72      49.6        7.94        
C           155.92      45.81       1.59        
N           154.68      46.71       3.45        
C           154.75      45.9        2.37        
C           166.15      50.11       8.17        
C           166.46      50.09       6.86        
S           164.46      49.61       8.36        
H           165.43      49.96       4.93        
H           167.45      50.26       6.48        
C           165.36      49.93       5.96        
C           164.18      49.73       6.66        
H           38.62       17.21       6.53        
H           166.83      50.29       8.94        
