392

C           40.16       12.54       10.59       
N           40.44       11.27       10.31       
C           38.92       13.09       10.52       
C           39.44       10.61       9.93        
C           38.06       11.09       9.76        
C           37.19       9.92        9.25        
C           38.17       8.79        9.24        
N           39.44       9.25        9.62        
C           35.86       9.83        8.79        
C           35.05       11.09       8.73        
N           33.78       10.66       8.5         
C           33.74       9.29        8.25        
C           35.03       7.29        8.07        
C           35.0        8.7         8.35        
C           37.85       12.39       10.07       
O           35.3        12.26       8.7         
O           38.08       7.7         8.78        
C           32.75       11.62       8.03        
C           40.67       8.5         9.28        
H           40.64       7.43        9.37        
H           41.23333    8.97402     8.47622     
H           41.34       8.74        10.11       
H           31.76       11.3        8.26        
H           32.86741    11.96488    7.00269     
H           32.96       12.58       8.52        
H           33.81       5.68        7.35        
H           35.99       6.82        8.2         
H           36.89       12.83       10.06       
H           38.83       14.09       10.81       
C           33.83       6.66        7.78        
N           32.6        8.76        7.9         
C           32.65       7.43        7.67        
C           43.63       13.81       12.0        
C           42.65       14.75       12.27       
S           42.86       12.53       11.09       
H           40.56       15.14       12.0        
H           42.83       15.67       12.81       
C           41.4        14.5        11.71       
C           41.35       13.32       11.04       
C           54.42       15.14       13.75       
N           53.94       13.87       13.55       
C           53.57       16.23       13.71       
C           52.63       13.78       13.46       
C           51.63       14.79       13.44       
C           50.29       14.11       13.38       
C           50.62       12.66       13.37       
N           51.97       12.55       13.25       
C           49.04       14.58       13.45       
C           48.68       16.02       13.96       
N           47.3        16.22       13.79       
C           46.72       15.0        13.3        
C           47.26       12.92       12.35       
C           47.73       14.02       13.09       
C           52.19       16.04       13.63       
O           49.4        16.85       14.37       
O           49.93       11.7        13.53       
C           46.56       17.48       14.04       
C           52.73       11.27       13.18       
H           52.27       10.4        13.67       
H           53.17996    11.03776    12.21476    
H           53.54       11.48       13.88       
H           45.7        17.41       14.58       
H           46.39274    18.01664    13.10611    
H           47.18       18.13       14.66       
H           45.49       11.92       11.46       
H           47.98       12.16       12.07       
H           51.56       16.89       13.81       
H           53.91       17.21       13.82       
C           45.86       12.76       12.03       
N           45.45       14.89       12.98       
C           44.97       13.81       12.39       
C           58.09       16.0        14.12       
C           58.08       14.71       13.6        
S           56.54       16.65       14.3        
H           56.55       13.32       12.92       
H           58.92       14.09       13.49       
C           56.82       14.27       13.28       
C           55.84       15.21       13.73       
C           66.22       23.05       17.24       
N           66.49       22.04       16.39       
C           64.97       23.25       17.67       
C           65.46       21.21       15.92       
C           64.13       21.29       16.34       
C           63.32       20.19       15.68       
C           64.41       19.49       14.78       
N           65.6        20.17       15.02       
C           61.99       19.76       15.7        
C           60.92       20.5        16.44       
N           59.72       19.97       16.16       
C           59.91       18.85       15.33       
C           61.58       17.37       14.54       
C           61.3        18.6        15.15       
C           63.93       22.31       17.29       
O           60.93       21.46       17.1        
O           64.24       18.62       13.98       
C           58.49       20.76       16.29       
C           66.84       19.79       14.33       
H           67.0        18.71       14.23       
H           67.00783    20.28619    13.37411    
H           67.63       20.14       15.07       
H           58.48       21.27       17.27       
H           58.33667    21.40983    15.42843    
H           57.66       20.0        16.25       
H           60.66       15.56       13.71       
H           62.6        17.06       14.2        
H           63.0        22.42       17.78       
H           64.63       23.99       18.4        
C           60.47       16.52       14.21       
N           58.86       18.05       15.05       
C           59.17       16.92       14.47       
C           69.69       24.13       18.57       
C           68.73       24.85       19.27       
S           68.98       23.17       17.36       
H           66.55       25.17       19.19       
H           69.0        25.67       19.97       
C           67.41       24.74       18.76       
C           67.38       23.73       17.8        
C           80.09       25.88       21.85       
N           79.83       25.68       20.57       
C           79.2        25.58       22.83       
C           78.63       25.25       20.21       
C           77.49       24.96       21.09       
C           76.35       24.66       20.24       
C           76.91       24.73       18.8        
N           78.25       25.2        18.92       
C           75.03       24.51       20.52       
C           74.43       24.59       21.95       
N           73.08       24.74       21.82       
C           72.71       24.39       20.54       
C           73.48       23.92       18.37       
C           73.82       24.25       19.7        
C           77.9        25.14       22.44       
O           74.96       24.76       23.05       
O           76.36       24.72       17.69       
C           72.29       25.24       22.92       
C           79.04       25.84       17.84       
H           79.79       26.54       18.2        
H           79.72267    25.1151     17.39662    
H           78.42       26.34       17.13       
H           72.74       24.91       23.8        
H           72.03021    26.2862     22.75851    
H           71.32       24.72       22.91       
H           71.81       23.76       16.87       
H           74.16       23.61       17.67       
H           77.25       24.94       23.25       
H           79.52       25.65       23.87       
C           72.1        23.89       17.93       
N           71.42       24.37       20.16       
C           71.08       24.14       18.86       
C           83.06       28.26       21.92       
C           82.97       27.73       23.22       
S           82.1        27.44       20.8        
H           81.47       26.39       24.2        
H           83.46       28.22       24.03       
C           81.9        26.82       23.31       
C           81.32       26.6        22.1        
C           89.79       36.71       20.12       
N           89.51       35.95       19.03       
C           89.18       36.49       21.36       
C           88.71       34.91       19.25       
C           88.21       34.48       20.5        
C           87.38       33.28       20.29       
C           87.58       33.06       18.73       
N           88.4        33.99       18.28       
C           86.71       32.42       21.13       
C           87.04       32.29       22.58       
N           86.15       31.38       23.13       
C           85.37       30.78       22.17       
C           84.82       31.0        19.86       
C           85.62       31.44       20.92       
C           88.47       35.29       21.59       
O           87.91       32.77       23.28       
O           87.3        32.03       18.05       
C           85.99       31.34       24.57       
C           88.5        34.13       16.88       
H           88.47       35.18       16.56       
H           89.41357    33.6807     16.49061    
H           87.67       33.67       16.33       
H           85.88       30.29       24.89       
H           85.16868    31.96307    24.92402    
H           86.88       31.76       25.01       
H           83.3        29.5        19.38       
H           84.84       31.4        18.86       
H           88.01       35.19       22.59       
H           89.23       37.25       22.11       
C           83.96       29.9        20.18       
N           84.6        29.81       22.51       
C           83.93       29.36       21.46       
C           92.53       39.22       19.01       
C           91.99       39.74       20.16       
S           91.73       37.75       18.51       
H           90.45       39.1        21.6        
H           92.44       40.52       20.73       
C           91.01       38.86       20.68       
C           90.75       37.77       19.92       
C           102.3       42.36       15.05       
N           101.58      41.48       14.37       
C           101.71      43.26       15.94       
C           100.35      41.29       14.74       
C           99.67       42.0        15.77       
C           98.39       41.23       16.08       
C           98.43       40.18       14.98       
N           99.57       40.31       14.24       
C           97.3        41.33       16.98       
C           97.37       42.3        18.14       
N           96.31       42.06       18.93       
C           95.44       41.14       18.35       
C           95.21       39.69       16.44       
C           96.0        40.65       17.12       
C           100.36      43.14       16.24       
O           98.25       43.06       18.51       
O           97.62       39.26       14.75       
C           96.25       42.71       20.26       
C           100.01      39.2        13.43       
H           99.54       38.24       13.86       
H           99.64593    39.2893     12.40649    
H           101.1       39.21       13.35       
H           95.23       42.64       20.64       
H           96.89023    42.27158    21.0255     
H           96.5        43.78       20.15       
H           93.46       38.42       16.59       
H           95.49       39.22       15.51       
H           99.89       43.85       16.85       
H           102.31      44.09       16.28       
C           94.04       39.26       17.02       
N           94.33       40.69       18.96       
C           93.68       39.74       18.28       
C           106.09      42.52       14.4        
C           105.68      41.37       13.79       
S           104.81      43.39       15.23       
H           103.71      40.42       13.46       
H           106.35      40.63       13.35       
C           104.24      41.3        13.83       
C           103.64      42.34       14.52       
C           116.48      46.66       14.89       
N           116.21      45.53       14.25       
C           115.42      47.41       15.59       
C           115.02      45.08       14.34       
C           113.87      45.68       15.06       
C           112.67      44.85       14.73       
C           113.3       43.66       14.02       
N           114.66      43.88       13.77       
C           111.28      44.93       14.93       
C           110.58      46.1        15.62       
N           109.22      45.83       15.75       
C           108.85      44.62       15.14       
C           109.81      42.8        14.04       
C           110.05      44.01       14.63       
C           114.15      46.92       15.61       
O           110.99      47.21       16.0        
O           112.8       42.69       13.73       
C           108.29      46.88       16.16       
C           115.49      43.04       12.9        
H           115.33      42.0        13.27       
H           115.41286   43.16622    11.82008    
H           116.56      43.19       13.18       
H           107.4       46.57       16.63       
H           108.02357   47.59515    15.38175    
H           108.86      47.32       16.98       
H           108.44      41.24       13.54       
H           110.58      42.33       13.53       
H           113.32      47.56       15.8        
H           115.62      48.34       16.09       
C           108.54      42.2        14.01       
N           107.6       44.12       15.11       
C           107.46      42.91       14.56       
C           120.15      47.83       14.02       
C           119.77      48.56       15.13       
S           118.89      46.75       13.53       
H           117.84      48.91       16.21       
H           120.34      49.43       15.56       
C           118.36      48.3        15.47       
C           117.82      47.25       14.78       
C           129.29      46.37       7.9         
N           129.37      47.21       8.94        
C           128.07      45.98       7.41        
C           128.29      47.5        9.64        
C           126.99      47.06       9.32        
C           126.08      47.47       10.42       
C           127.02      48.18       11.41       
N           128.31      48.12       10.86       
C           124.7       47.43       10.56       
C           123.72      46.94       9.47        
N           122.43      47.01       9.97        
C           122.47      47.33       11.3        
C           123.82      48.13       13.04       
C           123.77      47.79       11.69       
C           126.95      46.28       8.12        
O           123.94      46.59       8.3         
O           126.82      48.7        12.54       
C           121.33      46.58       9.15        
C           129.59      48.49       11.5        
H           130.45      47.88       11.14       
H           129.81342   49.52334    11.23468    
H           129.42      48.32       12.54       
H           120.32      46.94       9.52        
H           121.2643    45.51425    8.93101     
H           121.53      47.08       8.13        
H           122.7       48.55       14.85       
H           124.77      48.35       13.53       
H           125.99      45.95       7.71        
H           127.99      45.43       6.5         
C           122.63      48.2        13.78       
N           121.34      47.36       12.01       
C           121.4       47.83       13.25       
C           132.92      46.16       6.73        
C           132.32      45.25       5.94        
S           131.89      46.93       7.89        
H           130.2       44.53       5.71        
H           132.83      44.71       5.16        
C           130.9       45.25       6.22        
C           130.57      46.05       7.24        
C           143.88      47.18       5.45        
N           143.16      48.09       6.19        
C           143.31      46.04       4.93        
C           141.86      47.95       6.19        
C           141.11      46.9        5.76        
C           139.71      47.14       6.17        
C           139.75      48.54       6.8         
N           141.08      48.88       6.82        
C           138.55      46.43       6.07        
C           138.39      45.23       5.13        
N           137.1       44.75       5.23        
C           136.37      45.65       5.9         
C           136.37      47.69       7.07        
C           137.15      46.69       6.47        
C           141.95      45.89       5.15        
O           139.23      44.59       4.67        
O           138.93      49.27       7.35        
C           136.53      43.6        4.47        
C           141.59      49.98       7.66        
H           142.52      50.36       7.31        
H           141.69853   49.73401    8.71632     
H           140.86      50.82       7.58        
H           135.49      43.29       4.75        
H           136.53684   43.74361    3.38952     
H           137.33      42.83       4.69        
H           134.4       48.31       7.77        
H           136.83      48.64       7.34        
H           141.56      44.92       4.75        
H           143.93      45.34       4.36        
C           134.97      47.52       7.3         
N           135.08      45.52       5.98        
C           134.33      46.38       6.7         
C           147.39      48.55       6.01        
C           147.54      47.51       5.09        
S           145.73      48.72       6.49        
H           146.29      46.0        4.07        
H           148.51      47.26       4.71        
C           146.32      46.88       4.74        
C           145.28      47.4        5.42        
C           153.37      57.25       9.0         
N           154.14      56.24       8.55        
C           151.98      57.16       8.99        
C           153.51      55.14       8.25        
C           152.11      54.86       8.32        
C           151.85      53.43       7.97        
C           153.2       53.01       7.46        
N           154.17      54.02       7.79        
C           150.72      52.67       8.03        
C           149.49      53.16       8.8         
N           148.5       52.28       8.73        
C           148.8       51.3        7.83        
C           150.67      50.43       6.53        
C           150.2       51.43       7.44        
C           151.4       55.98       8.63        
O           149.5       54.09       9.61        
O           153.51      51.88       7.01        
C           147.24      52.45       9.46        
C           155.58      53.79       7.87        
H           155.83      52.79       8.06        
H           156.08884   54.13165    6.96863     
H           155.86      54.38       8.76        
H           146.92      51.46       9.75        
H           146.51601   52.89553    8.77777     
H           147.23      53.08       10.34       
H           150.17      48.69       5.41        
H           151.66      50.45       6.26        
H           150.32      56.01       8.61        
H           151.32      58.04       9.15        
C           149.76      49.41       6.13        
N           147.97      50.33       7.4         
C           148.42      49.42       6.55        
C           155.49      60.53       8.85        
C           154.46      60.78       9.76        
S           155.42      58.94       8.24        
H           152.68      59.65       10.34       
H           154.19      61.74       10.14       
C           153.6       59.67       9.83        
C           154.02      58.57       9.13        
H           31.7        6.9         7.7         
H           155.99      61.32       8.42        
