392

C           50.98       7.44        4.32        
N           50.47       6.29        3.87        
C           50.22       8.58        4.49        
C           49.15       6.24        3.55        
C           48.23       7.34        3.65        
C           46.83       6.81        3.41        
C           47.09       5.32        3.0         
N           48.46       5.12        3.18        
C           45.54       7.34        3.54        
C           45.29       8.71        4.25        
N           43.94       9.0         4.25        
C           43.17       8.04        3.62        
C           43.48       6.15        2.25        
C           44.16       7.03        3.11        
C           48.86       8.54        4.17        
O           46.05       9.36        4.89        
O           46.28       4.43        2.68        
C           43.44       10.3        4.85        
C           49.08       3.8         3.19        
H           48.32       3.05        3.15        
H           49.7605     3.64957     2.35191     
H           49.4        3.68        4.2         
H           42.36       10.17       5.05        
H           43.40386    11.14572    4.1633      
H           43.99       10.53       5.81        
H           41.75       5.36        1.44        
H           44.07       5.36        1.87        
H           48.26       9.43        4.28        
H           50.6        9.52        4.78        
C           42.17       6.21        1.94        
N           41.9        8.18        3.25        
C           41.39       7.26        2.38        
C           54.79       8.3         4.19        
C           54.73       6.99        4.14        
S           53.26       9.01        4.44        
H           53.05       5.45        3.82        
H           55.59       6.37        3.87        
C           53.41       6.47        4.13        
C           52.47       7.48        4.38        
C           63.53       15.12       3.72        
N           63.59       14.09       2.83        
C           62.37       15.51       4.31        
C           62.5        13.29       2.82        
C           61.25       13.57       3.41        
C           60.29       12.46       3.11        
C           61.22       11.51       2.29        
N           62.46       12.12       2.16        
C           58.95       12.16       3.41        
C           58.05       13.25       3.94        
N           56.8        12.63       4.16        
C           56.82       11.28       3.89        
C           58.21       9.57        3.08        
C           58.09       10.94       3.35        
C           61.19       14.81       4.1         
O           58.32       14.44       4.27        
O           60.98       10.38       1.8         
C           55.58       13.4        4.49        
C           63.34       11.76       1.1         
H           63.92       12.61       0.84        
H           64.0791     11.03511    1.44112     
H           62.71       11.38       0.23        
H           55.09       12.8        5.29        
H           54.86757    13.45533    3.6669      
H           55.75       14.33       4.84        
H           57.26       7.72        3.17        
H           59.17       9.09        2.81        
H           60.34       15.18       4.58        
H           62.51       16.3        5.03        
C           57.14       8.77        3.35        
N           55.73       10.53       4.07        
C           55.94       9.2         3.89        
C           66.72       17.06       4.95        
C           67.06       16.6        3.74        
S           65.1        16.69       5.41        
H           65.91       15.56       2.14        
H           68.04       16.63       3.28        
C           65.89       15.98       3.15        
C           64.75       15.83       3.91        
C           71.99       23.09       12.67       
N           72.66       22.72       11.57       
C           70.74       22.65       12.96       
C           71.97       21.99       10.72       
C           70.58       21.55       10.84       
C           70.32       20.74       9.57        
C           71.68       20.81       8.79        
N           72.58       21.52       9.51        
C           69.19       20.11       9.0         
C           67.83       20.16       9.66        
N           66.93       19.51       8.9         
C           67.56       18.97       7.83        
C           69.65       18.65       6.78        
C           68.95       19.25       7.81        
C           70.01       21.84       12.05       
O           67.53       20.59       10.73       
O           71.99       20.35       7.72        
C           65.54       19.23       9.37        
C           74.02       21.38       9.29        
H           74.3        20.45       8.82        
H           74.48149    22.22488    8.77881     
H           74.34       21.37       10.37       
H           65.53       19.58       10.36       
H           64.71738    19.58858    8.75128     
H           65.52       18.11       9.38        
H           69.47       17.46       4.89        
H           70.75       18.77       6.73        
H           69.0        21.6        12.36       
H           70.17       22.97       13.8        
C           68.98       17.86       5.79        
N           66.87       18.27       6.96        
C           67.58       17.68       5.92        
C           74.31       25.13       15.05       
C           73.19       24.72       15.77       
S           74.17       24.64       13.4        
H           71.35       23.6        15.42       
H           73.09       24.77       16.81       
C           72.2        23.98       14.99       
C           72.62       23.86       13.69       
C           82.31       30.82       20.36       
N           82.41       30.47       19.04       
C           81.11       30.63       21.05       
C           81.33       29.96       18.43       
C           80.05       29.69       19.0        
C           79.28       29.04       17.91       
C           80.24       29.08       16.73       
N           81.38       29.73       17.07       
C           78.06       28.32       17.94       
C           77.02       28.28       19.06       
N           75.93       27.53       18.74       
C           76.06       26.97       17.49       
C           77.48       27.07       15.53       
C           77.31       27.45       16.9        
C           80.03       30.03       20.38       
O           77.14       28.79       20.18       
O           80.07       28.64       15.6        
C           74.99       27.04       19.77       
C           82.64       29.64       16.32       
H           82.64       28.81       15.62       
H           82.81846    30.54659    15.74178    
H           83.45       29.38       17.04       
H           75.48       26.93       20.7        
H           74.20419    27.78943    19.86459    
H           74.73       26.06       19.39       
H           76.63       25.96       13.95       
H           78.42       27.25       15.02       
H           79.09       30.0        20.91       
H           80.95       31.04       22.01       
C           76.5        26.31       14.96       
N           75.28       26.12       16.96       
C           75.4        25.82       15.67       
C           85.79       32.53       20.71       
C           85.15       32.69       21.88       
S           84.72       31.7        19.57       
H           83.19       32.2        22.72       
H           85.52       33.23       22.75       
C           83.88       32.09       21.91       
C           83.49       31.52       20.75       
C           95.6        37.16       17.79       
N           94.71       36.71       16.88       
C           95.3        37.07       19.16       
C           93.61       36.14       17.29       
C           93.18       35.96       18.64       
C           91.87       35.28       18.58       
C           91.72       34.9        17.12       
N           92.73       35.45       16.47       
C           90.84       34.96       19.46       
C           90.87       35.41       20.93       
N           89.71       35.09       21.55       
C           88.88       34.39       20.66       
C           88.64       33.6        18.5        
C           89.48       34.31       19.39       
C           94.08       36.53       19.6        
O           91.7        36.05       21.43       
O           90.79       34.41       16.48       
C           89.37       35.39       22.9        
C           92.85       35.36       15.02       
H           93.5        36.18       14.67       
H           93.40649    34.47658    14.70698    
H           91.87       35.57       14.58       
H           88.83       34.55       23.29       
H           88.66284    36.21388    22.99612    
H           90.29       35.55       23.46       
H           86.86       32.34       18.25       
H           89.01       33.33       17.5        
H           93.94       36.5        20.65       
H           96.02       37.5        19.81       
C           87.46       32.92       18.95       
N           87.79       33.81       21.08       
C           87.04       33.07       20.28       
C           98.63       38.73       15.72       
C           98.67       39.2        17.0        
S           97.14       37.89       15.49       
H           97.7        38.76       18.94       
H           99.54       39.79       17.41       
C           97.68       38.63       17.87       
C           96.78       37.85       17.21       
C           106.95      41.61       8.99        
N           105.9       40.94       8.47        
C           106.79      42.24       10.21       
C           104.98      40.55       9.32        
C           104.73      41.01       10.67       
C           103.46      40.38       11.17       
C           102.98      39.58       9.98        
N           103.93      39.7        8.98        
C           102.77      40.55       12.39       
C           103.21      41.45       13.48       
N           102.25      41.34       14.5        
C           101.3       40.43       14.21       
C           100.8       38.65       12.67       
C           101.58      39.82       12.97       
C           105.77      41.94       11.06       
O           104.22      42.11       13.62       
O           101.93      38.95       9.81        
C           102.49      42.23       15.59       
C           103.77      38.84       7.84        
H           103.36      37.86       8.08        
H           103.16075   39.34299    7.08906     
H           104.72      38.7        7.3         
H           102.96      43.13       15.24       
H           101.6376    42.45503    16.231      
H           103.27      41.75       16.26       
H           99.02       37.52       13.28       
H           101.13      37.87       11.95       
H           105.52      42.53       11.9        
H           107.54      43.04       10.53       
C           99.74       38.33       13.55       
N           100.33      40.09       15.04       
C           99.54       39.07       14.71       
C           109.88      43.32       7.03        
C           109.28      42.44       6.13        
S           109.21      43.11       8.58        
H           107.43      41.13       6.2         
H           109.62      42.18       5.15        
C           108.07      41.83       6.72        
C           107.94      42.08       8.03        
C           120.03      47.6        8.78        
N           119.94      46.75       7.78        
C           118.9       48.12       9.42        
C           118.7       46.31       7.57        
C           117.47      46.73       8.11        
C           116.32      45.95       7.52        
C           117.05      45.29       6.35        
N           118.43      45.52       6.44        
C           114.97      45.74       7.87        
C           114.3       46.6        8.88        
N           113.0       46.26       9.05        
C           112.73      45.29       8.13        
C           113.47      44.12       6.21        
C           113.82      44.97       7.28        
C           117.64      47.71       9.1         
O           114.76      47.46       9.55        
O           116.56      44.51       5.59        
C           112.13      46.7        10.11       
C           119.54      44.77       5.82        
H           119.11      43.87       5.48        
H           120.04929   45.3288     5.03485     
H           120.19      44.44       6.65        
H           111.43      45.95       10.45       
H           111.55534   47.56198    9.7711      
H           112.76      47.06       10.97       
H           112.0       42.96       5.3         
H           114.24      43.71       5.53        
H           116.82      48.17       9.61        
H           119.06      48.89       10.25       
C           112.18      43.65       6.09        
N           111.53      44.71       8.07        
C           111.23      43.92       7.05        
C           124.01      47.99       9.44        
C           123.34      49.03       10.06       
S           122.77      46.99       8.6         
H           121.26      49.64       10.42       
H           123.79      49.81       10.62       
C           121.92      48.98       9.9         
C           121.4       48.0        9.13        
C           134.33      44.11       9.13        
N           133.96      44.86       10.14       
C           133.5       43.7        8.1         
C           132.67      45.19       10.15       
C           131.62      44.89       9.15        
C           130.33      45.48       9.68        
C           130.79      46.22       10.94       
N           132.13      45.95       11.17       
C           129.01      45.52       9.18        
C           128.54      44.84       7.89        
N           127.24      45.2        7.63        
C           126.81      46.04       8.64        
C           127.38      47.27       10.61       
C           127.8       46.3        9.65        
C           132.14      44.09       8.14        
O           129.12      43.96       7.28        
O           130.18      46.87       11.83       
C           126.34      44.63       6.59        
C           132.87      46.15       12.36       
H           133.63      45.32       12.56       
H           133.39573   47.10461    12.38075    
H           132.12      46.01       13.16       
H           125.55      45.36       6.32        
H           125.90317   43.69293    6.93524     
H           126.96      44.39       5.75        
H           125.71      48.48       11.34       
H           128.04      47.55       11.4        
H           131.5       43.7        7.39        
H           133.85      43.15       7.22        
C           126.09      47.74       10.59       
N           125.69      46.68       8.48        
C           125.32      47.55       9.45        
C           137.98      43.65       10.34       
C           137.94      43.06       9.08        
S           136.41      44.29       10.79       
H           136.45      42.77       7.49        
H           138.79      42.61       8.59        
C           136.66      43.16       8.48        
C           135.75      43.72       9.28        
C           146.38      44.77       17.5        
N           145.23      45.46       17.59       
C           146.53      43.86       16.45       
C           144.26      45.19       16.78       
C           144.27      44.24       15.76       
C           142.94      44.3        15.14       
C           142.14      45.26       16.03       
N           143.0       45.7        17.07       
C           142.38      43.67       13.93       
C           143.23      42.97       12.85       
N           142.46      42.74       11.69       
C           141.17      43.1        11.99       
C           139.75      44.15       13.59       
C           141.01      43.66       13.31       
C           145.52      43.59       15.58       
O           144.47      42.75       12.79       
O           141.03      45.76       15.97       
C           142.95      42.86       10.36       
C           142.58      46.39       18.29       
H           143.27      46.94       18.84       
H           141.96305   45.76571    18.93633    
H           141.82      47.14       17.87       
H           144.0       43.14       10.46       
H           142.97805   41.93442    9.78502     
H           142.46      43.7        9.92        
H           137.76      44.51       13.0        
H           139.57      44.6        14.58       
H           145.6       42.83       14.87       
H           147.48      43.39       16.22       
C           138.69      44.2        12.66       
N           140.16      43.08       11.08       
C           138.97      43.6        11.45       
C           149.12      46.5        19.85       
C           149.74      45.43       19.17       
S           147.43      46.49       19.4        
H           149.12      43.92       17.58       
H           150.86      45.27       19.33       
C           148.84      44.72       18.23       
C           147.55      45.18       18.27       
C           152.66      55.03       26.01       
N           153.44      53.92       25.98       
C           151.39      55.1        25.43       
C           152.93      52.87       25.34       
C           151.65      52.81       24.68       
C           151.58      51.48       23.97       
C           152.87      50.83       24.4        
N           153.6       51.67       25.19       
C           150.57      50.86       23.18       
C           149.12      51.34       23.04       
N           148.36      50.45       22.34       
C           149.16      49.38       21.9        
C           151.26      48.45       22.18       
C           150.46      49.61       22.37       
C           150.87      54.0        24.71       
O           148.53      52.3        23.59       
O           153.26      49.66       24.18       
C           147.0       50.57       21.82       
C           154.62      51.35       26.2        
H           154.5       50.28       26.49       
H           155.63215   51.53664    25.84108    
H           154.34      51.86       27.09       
H           146.65      49.59       21.39       
H           146.90461   51.29222    21.0092     
H           146.33      50.73       22.69       
H           151.5       46.52       21.15       
H           152.23      48.48       22.56       
H           149.94      54.1        24.16       
H           150.84      56.01       25.51       
C           150.91      47.44       21.25       
N           148.69      48.39       21.13       
C           149.6       47.5        20.8        
C           154.97      57.69       27.67       
C           153.75      58.27       27.58       
S           154.93      56.02       27.06       
H           151.73      57.58       27.0        
H           153.48      59.2        27.95       
C           152.77      57.39       27.05       
C           153.33      56.16       26.64       
H           40.44       7.57        1.95        
H           155.84      58.24       28.05       
