392

C           51.35       19.75       35.35       
N           51.04       18.52       35.0        
C           50.55       20.57       36.03       
C           49.9        18.05       35.53       
C           48.9        18.72       36.26       
C           47.8        17.75       36.6        
C           48.33       16.45       36.08       
N           49.6        16.67       35.49       
C           46.65       17.93       37.29       
C           46.34       19.2        38.06       
N           45.17       19.13       38.71       
C           44.56       17.89       38.43       
C           44.92       15.85       37.22       
C           45.45       17.09       37.58       
C           49.28       20.11       36.47       
O           47.0        20.23       38.16       
O           47.86       15.34       36.19       
C           44.34       20.38       39.06       
C           50.6        15.64       35.37       
H           50.55       15.07       36.29       
H           50.3571     14.91865    34.58977    
H           51.54       16.15       35.26       
H           43.98       20.54       40.08       
H           43.50877    20.51161    38.3673     
H           45.0        21.22       38.86       
H           43.23       14.5        37.51       
H           45.43       15.15       36.55       
H           48.6        20.88       36.85       
H           50.92       21.55       36.26       
C           43.59       15.49       37.71       
N           43.43       17.5        38.95       
C           43.0        16.31       38.59       
C           55.17       20.49       35.18       
C           54.85       19.8        34.12       
S           53.8        20.76       36.25       
H           52.88       19.07       33.23       
H           55.58       19.51       33.37       
C           53.42       19.56       34.04       
C           52.76       20.01       35.12       
C           64.32       25.26       39.27       
N           64.56       24.25       38.37       
C           63.04       25.71       39.57       
C           63.44       23.61       37.91       
C           62.07       23.97       38.27       
C           61.2        22.97       37.69       
C           62.13       22.18       36.79       
N           63.42       22.57       36.98       
C           59.82       22.82       37.7        
C           58.86       23.46       38.67       
N           57.53       23.14       38.31       
C           57.51       22.27       37.28       
C           58.86       21.01       35.82       
C           58.88       21.99       36.85       
C           61.93       25.13       39.0        
O           59.06       24.29       39.61       
O           61.88       21.28       36.01       
C           56.35       23.72       38.92       
C           64.67       22.03       36.4        
H           64.62       20.9        36.44       
H           64.95013    22.41517    35.41956    
H           65.41       22.22       37.18       
H           55.6        22.9        39.14       
H           56.00722    24.50766    38.24903    
H           56.68       24.16       39.81       
H           57.74       19.98       34.31       
H           59.79       20.58       35.47       
H           60.98       25.59       39.23       
H           62.81       26.56       40.19       
C           57.72       20.55       35.22       
N           56.39       21.73       36.77       
C           56.44       20.87       35.73       
C           67.22       27.08       41.12       
C           67.73       26.57       39.99       
S           65.5        26.68       41.35       
H           66.92       25.35       38.3        
H           68.79       26.73       39.74       
C           66.73       25.82       39.28       
C           65.5        25.87       39.87       
C           72.06       31.03       50.36       
N           72.83       30.66       49.31       
C           70.68       30.97       50.29       
C           72.22       30.35       48.12       
C           70.8        30.47       47.84       
C           70.63       30.09       46.4        
C           72.06       29.85       45.9        
N           72.95       30.03       46.98       
C           69.49       29.88       45.58       
C           68.09       29.89       46.13       
N           67.22       29.23       45.35       
C           67.81       28.96       44.1        
C           69.88       28.95       43.1        
C           69.18       29.34       44.21       
C           70.07       30.81       49.0        
O           67.72       30.33       47.21       
O           72.33       29.63       44.77       
C           65.83       29.06       45.71       
C           74.33       29.72       46.9        
H           74.44       28.92       46.16       
H           74.93437    30.60167    46.68669    
H           74.61       29.23       47.79       
H           65.83       28.87       46.73       
H           65.23393    29.92502    45.41924    
H           65.5        28.17       45.23       
H           69.86       27.95       41.18       
H           70.87       29.27       42.97       
H           69.03       31.05       48.98       
H           70.1        31.31       51.14       
C           69.22       28.23       42.03       
N           67.22       28.28       43.25       
C           67.88       27.82       42.18       
C           74.53       32.13       53.2        
C           73.26       32.3        53.65       
S           74.54       31.75       51.46       
H           71.25       31.88       52.96       
H           73.03       32.7        54.64       
C           72.28       31.88       52.69       
C           72.76       31.62       51.49       
C           83.12       33.21       60.43       
N           83.36       33.2        59.09       
C           81.79       33.09       60.87       
C           82.29       33.02       58.27       
C           80.93       32.92       58.57       
C           80.09       32.84       57.33       
C           81.21       32.69       56.33       
N           82.47       32.91       56.88       
C           78.74       32.8        56.99       
C           77.61       32.94       57.99       
N           76.4        32.78       57.38       
C           76.58       32.62       56.04       
C           78.15       32.42       54.33       
C           77.93       32.62       55.71       
C           80.74       33.04       59.93       
O           77.64       33.26       59.16       
O           81.05       32.66       55.17       
C           75.15       32.61       58.1        
C           83.74       33.12       56.08       
H           83.57       32.72       55.08       
H           84.06285    34.15872    56.00982    
H           84.59       32.51       56.51       
H           75.37       32.42       59.18       
H           74.50531    33.48649    58.03481    
H           74.68       31.75       57.78       
H           77.21       32.09       52.36       
H           79.1        32.56       53.88       
H           79.77       32.95       60.38       
H           81.58       32.87       61.9        
C           77.02       32.34       53.42       
N           75.54       32.49       55.26       
C           75.77       32.43       53.93       
C           86.62       32.76       62.18       
C           85.58       32.65       63.14       
S           86.0        33.03       60.53       
H           83.45       32.55       63.12       
H           85.71       32.4        64.17       
C           84.33       32.73       62.54       
C           84.34       32.95       61.18       
C           97.45       32.5        64.46       
N           97.08       32.91       63.25       
C           96.56       32.18       65.42       
C           95.81       32.73       62.96       
C           94.72       32.29       63.79       
C           93.46       32.41       63.02       
C           93.88       32.91       61.66       
N           95.29       33.08       61.73       
C           92.13       32.09       63.43       
C           91.81       31.19       64.62       
N           90.48       31.13       64.78       
C           89.82       31.86       63.71       
C           90.3        33.15       61.74       
C           90.77       32.43       62.86       
C           95.18       32.09       65.13       
O           92.53       30.46       65.3        
O           93.24       33.31       60.66       
C           89.88       30.46       65.89       
C           96.03       34.22       61.05       
H           96.62       34.75       61.74       
H           96.7026     33.92972    60.24288    
H           95.26       34.86       60.65       
H           89.0        29.88       65.6        
H           89.73954    31.16229    66.71168    
H           90.67       29.77       66.22       
H           88.59       33.82       60.63       
H           90.95       33.67       61.04       
H           94.46       31.86       65.8        
H           96.91       32.03       66.42       
C           88.96       33.26       61.51       
N           88.48       31.83       63.54       
C           88.05       32.58       62.41       
C           101.29      33.07       64.05       
C           101.15      32.65       65.36       
S           99.76       33.06       63.21       
H           99.45       31.69       66.57       
H           101.99      32.38       65.99       
C           99.76       32.29       65.67       
C           98.87       32.58       64.64       
C           111.29      34.83       59.65       
N           110.19      35.27       58.94       
C           111.15      34.15       60.87       
C           109.04      35.01       59.54       
C           108.77      34.27       60.74       
C           107.3       34.27       61.07       
C           106.75      35.17       59.96       
N           107.78      35.54       59.08       
C           106.49      33.78       62.08       
C           107.05      33.25       63.35       
N           106.0       33.05       64.24       
C           104.8       33.23       63.57       
C           103.87      33.79       61.45       
C           105.04      33.72       62.25       
C           109.95      33.8        61.33       
O           108.19      33.04       63.74       
O           105.61      35.58       59.67       
C           106.12      32.55       65.61       
C           107.57      36.18       57.79       
H           106.53      36.26       57.41       
H           108.07222   37.1414     57.68238    
H           108.15      35.63       57.12       
H           105.58      33.2        66.37       
H           105.84646   31.49904    65.70358    
H           107.18      32.6        65.92       
H           101.76      33.82       61.46       
H           103.94      33.93       60.38       
H           109.87      33.22       62.27       
H           112.05      33.74       61.36       
C           102.64      33.49       62.03       
N           103.61      32.91       64.1        
C           102.55      33.07       63.32       
C           114.91      35.74       58.56       
C           114.14      35.62       57.44       
S           113.98      35.63       59.95       
H           111.97      35.38       56.92       
H           114.6       35.56       56.47       
C           112.77      35.37       57.73       
C           112.58      35.18       59.07       
C           125.45      39.02       60.22       
N           125.09      38.39       59.06       
C           124.54      39.16       61.27       
C           123.88      37.83       58.96       
C           122.89      37.75       60.01       
C           121.67      37.11       59.52       
C           122.09      36.72       58.17       
N           123.32      37.2        57.87       
C           120.33      36.99       59.95       
C           119.85      37.19       61.42       
N           118.48      36.88       61.47       
C           118.01      36.56       60.18       
C           118.59      36.41       57.92       
C           119.08      36.64       59.23       
C           123.28      38.47       61.2        
O           120.5       37.36       62.47       
O           121.52      35.96       57.41       
C           117.71      37.06       62.72       
C           123.94      37.02       56.57       
H           123.63      36.11       56.1        
H           123.87621   37.86343    55.8825     
H           125.01      36.97       56.76       
H           116.89      36.39       62.7        
H           117.31482   38.06989    62.82977    
H           118.49      36.7        63.44       
H           116.91      35.69       56.67       
H           119.31      36.41       57.09       
H           122.68      38.56       62.05       
H           124.87      39.62       62.13       
C           117.23      36.05       57.67       
N           116.73      36.32       59.97       
C           116.28      36.12       58.69       
C           129.15      40.14       59.5        
C           128.92      40.39       60.84       
S           127.74      39.55       58.76       
H           127.16      40.23       62.24       
H           129.67      40.79       61.43       
C           127.54      40.12       61.27       
C           126.84      39.55       60.23       
C           138.63      40.83       53.86       
N           138.5       41.58       54.95       
C           137.71      39.93       53.39       
C           137.32      41.55       55.52       
C           136.21      40.73       55.08       
C           135.09      41.08       55.95       
C           135.65      42.11       56.97       
N           136.89      42.43       56.51       
C           133.77      40.66       56.1        
C           133.03      39.74       55.09       
N           131.77      39.58       55.59       
C           131.52      40.28       56.81       
C           132.62      41.32       58.51       
C           132.76      40.83       57.2        
C           136.52      39.83       54.07       
O           133.4       39.3        53.99       
O           135.21      42.69       57.93       
C           130.79      38.58       54.96       
C           137.84      43.26       57.31       
H           138.78      42.73       57.53       
H           138.05585   44.22782    56.85742    
H           137.42      43.33       58.32       
H           129.74      38.97       54.85       
H           130.85478   37.60111    55.43505    
H           131.19      38.42       53.94       
H           131.49      41.47       60.32       
H           133.48      41.68       58.98       
H           135.79      39.13       53.67       
H           137.94      39.24       52.56       
C           131.45      41.14       59.25       
N           130.4       40.03       57.46       
C           130.34      40.47       58.74       
C           142.5       41.31       53.76       
C           142.18      40.53       52.69       
S           141.09      41.7        54.67       
H           140.47      39.6        51.8        
H           142.88      40.23       51.93       
C           140.81      40.24       52.61       
C           140.06      40.9        53.55       
C           152.32      46.31       55.29       
N           151.32      46.62       56.09       
C           152.28      45.28       54.39       
C           150.21      45.94       55.94       
C           149.96      44.93       54.96       
C           148.55      44.46       55.11       
C           148.06      45.32       56.25       
N           149.05      46.09       56.74       
C           147.7       43.5        54.5        
C           148.16      42.64       53.34       
N           147.0       42.03       52.82       
C           145.94      42.29       53.6        
C           145.18      43.39       55.52       
C           146.27      43.16       54.68       
C           151.12      44.57       54.15       
O           149.21      42.65       52.66       
O           146.96      45.39       56.72       
C           146.98      41.39       51.52       
C           148.93      47.25       57.7        
H           149.43      48.11       57.28       
H           149.16636   46.9461     58.71974    
H           147.88      47.51       57.74       
H           147.84      41.67       50.97       
H           147.01513   40.30093    51.54811    
H           146.09      41.77       51.05       
H           143.11      42.87       55.96       
H           145.37      43.82       56.52       
H           151.17      43.84       53.43       
H           153.17      44.96       53.89       
C           143.98      42.72       55.31       
N           144.76      41.69       53.35       
C           143.74      41.99       54.16       
C           155.38      48.13       56.82       
C           155.77      47.71       55.56       
S           153.9       47.53       57.24       
H           154.63      46.71       53.85       
H           156.68      47.98       55.06       
C           154.7       47.04       54.89       
C           153.62      46.85       55.65       
C           160.75      55.02       63.59       
N           161.43      54.09       62.91       
C           159.37      54.98       63.55       
C           160.87      53.13       62.22       
C           159.39      52.99       62.15       
C           159.08      51.84       61.37       
C           160.48      51.33       60.99       
N           161.43      52.04       61.61       
C           157.91      51.31       60.83       
C           156.55      51.65       61.35       
N           155.61      50.94       60.64       
C           156.24      50.16       59.69       
C           158.24      49.72       58.64       
C           157.63      50.37       59.72       
C           158.64      54.01       62.85       
O           156.18      52.36       62.37       
O           160.68      50.26       60.4        
C           154.14      50.87       60.85       
C           162.72      51.52       62.02       
H           162.62      50.45       62.13       
H           163.54802   51.77963    61.36039    
H           162.94      51.85       63.05       
H           153.77      49.83       60.89       
H           153.61211   51.51597    60.14846    
H           153.89      51.35       61.81       
H           158.14      48.41       57.03       
H           159.34      49.78       58.56       
H           157.65      54.06       62.71       
H           158.87      55.76       64.07       
C           157.6       48.96       57.75       
N           155.56      49.46       58.81       
C           156.21      48.85       57.8        
C           162.51      57.95       65.62       
C           163.44      57.44       64.73       
S           160.96      57.11       65.46       
H           163.48      55.8        63.21       
H           164.46      57.78       64.61       
C           162.86      56.37       63.92       
C           161.55      56.06       64.19       
H           42.26       15.81       39.17       
H           162.73      58.7        66.37       
