392

C           67.93       27.83       31.35       
N           68.34       26.55       31.17       
C           66.55       28.12       31.54       
C           67.48       25.58       31.38       
C           66.04       25.71       31.6        
C           65.49       24.32       31.66       
C           66.76       23.43       31.46       
N           67.83       24.26       31.19       
C           64.18       23.85       31.75       
C           62.92       24.79       31.61       
N           61.75       24.04       31.61       
C           62.14       22.7        31.91       
C           63.97       21.25       32.1        
C           63.58       22.55       31.91       
C           65.65       27.06       31.72       
O           62.91       25.93       31.24       
O           66.82       22.17       31.41       
C           60.35       24.5        31.52       
C           69.19       23.78       30.95       
H           69.73       24.48       30.29       
H           69.70081    23.50331    31.87229    
H           69.26       22.88       30.37       
H           59.75       24.2        32.31       
H           59.85928    24.14559    30.61353    
H           60.41       25.61       31.41       
H           63.39       19.23       32.47       
H           65.01       21.01       32.16       
H           64.69       27.29       32.03       
H           66.14       29.11       31.71       
C           63.04       20.24       32.31       
N           61.24       21.73       32.17       
C           61.71       20.55       32.48       
C           70.55       30.57       32.28       
C           71.18       29.64       31.44       
S           68.79       30.3        32.34       
H           70.51       27.69       30.48       
H           72.23       29.64       31.27       
C           70.26       28.59       31.02       
C           69.0        28.84       31.49       
C           73.05       38.23       40.05       
N           74.01       37.42       39.61       
C           71.82       38.24       39.44       
C           73.76       36.65       38.56       
C           72.52       36.63       37.81       
C           72.59       35.51       36.81       
C           74.08       35.15       36.92       
N           74.6        35.72       38.06       
C           71.73       34.9        35.83       
C           70.26       35.18       35.84       
N           69.66       34.36       34.89       
C           70.61       33.49       34.32       
C           72.81       32.81       34.35       
C           71.86       33.75       34.89       
C           71.56       37.59       38.24       
O           69.73       36.0        36.58       
O           74.62       34.14       36.43       
C           68.21       34.29       34.54       
C           75.7        35.13       38.85       
H           75.63       33.98       38.73       
H           76.6585     35.58064    38.59249    
H           75.44       35.32       39.9        
H           67.75       33.34       34.57       
H           67.92365    34.8208     33.63206    
H           67.74       34.7        35.4        
H           73.27       31.19       32.88       
H           73.87       32.9        34.55       
H           70.6        37.64       37.72       
H           71.09       38.9        39.83       
C           72.49       31.81       33.41       
N           70.24       32.54       33.47       
C           71.13       31.63       33.07       
C           73.48       41.05       42.97       
C           74.54       40.17       42.92       
S           72.33       40.41       41.82       
H           75.38       38.67       41.65       
H           75.43       40.29       43.48       
C           74.56       39.3        41.79       
C           73.38       39.16       41.21       
C           71.68       50.18       49.02       
N           72.45       49.23       49.6        
C           71.0        50.01       47.85       
C           72.57       48.11       48.79       
C           71.92       47.8        47.56       
C           72.41       46.48       47.1        
C           73.46       46.13       48.19       
N           73.5        47.15       49.1        
C           72.16       45.65       46.0        
C           70.96       45.92       45.13       
N           70.85       44.9        44.24       
C           71.92       44.02       44.39       
C           73.76       43.55       45.75       
C           72.73       44.39       45.49       
C           71.0        48.76       47.21       
O           70.14       46.78       45.25       
O           74.12       45.16       48.35       
C           69.96       44.96       43.09       
C           74.52       47.26       50.13       
H           74.61       48.34       50.36       
H           74.29392    46.61093    50.97598    
H           75.48       46.95       49.68       
H           68.92       45.33       43.31       
H           70.34908    45.53995    42.25311    
H           69.87       43.91       42.78       
H           75.02       41.93       44.97       
H           74.47       43.8        46.58       
H           70.45       48.74       46.23       
H           70.46       50.8        47.37       
C           74.06       42.5        44.9        
N           72.04       42.91       43.67       
C           73.2        42.21       43.85       
C           72.47       53.08       51.51       
C           71.54       53.61       50.65       
S           72.82       51.4        51.1        
H           70.38       52.87       48.88       
H           71.1        54.61       50.7        
C           71.08       52.62       49.69       
C           71.69       51.37       49.85       
C           78.89       58.67       58.45       
N           78.46       57.47       58.74       
C           78.58       59.28       57.23       
C           77.67       56.91       57.89       
C           77.23       57.35       56.63       
C           76.4        56.24       56.06       
C           76.23       55.26       57.28       
N           77.09       55.72       58.32       
C           75.73       56.05       54.86       
C           75.76       57.15       53.8        
N           74.85       56.73       52.84       
C           74.25       55.5        53.15       
C           74.5        53.63       54.54       
C           74.89       54.93       54.27       
C           77.73       58.68       56.32       
O           76.47       58.17       53.7        
O           75.54       54.34       57.5        
C           74.42       57.67       51.87       
C           77.11       55.12       59.65       
H           76.17       54.66       59.89       
H           77.80776    54.28415    59.70088    
H           77.2        55.99       60.37       
H           73.96       57.23       51.02       
H           73.71516    58.38923    52.28715    
H           75.32       58.24       51.48       
H           73.54       51.79       53.79       
H           74.96       53.1        55.33       
H           77.37       59.22       55.44       
H           78.95       60.36       57.12       
C           73.72       52.89       53.63       
N           73.44       54.91       52.35       
C           73.28       53.62       52.53       
C           81.59       60.72       60.46       
C           80.86       59.96       61.38       
S           80.89       60.43       58.87       
H           79.13       58.54       61.27       
H           81.14       59.83       62.42       
C           79.73       59.25       60.8        
C           79.68       59.37       59.42       
C           92.28       63.46       61.26       
N           91.59       63.98       60.16       
C           91.55       62.91       62.32       
C           90.26       63.73       60.15       
C           89.45       63.1        61.13       
C           88.02       63.24       60.72       
C           88.15       63.86       59.35       
N           89.45       64.06       59.06       
C           86.84       62.86       61.3        
C           86.62       62.58       62.8        
N           85.3        62.3        63.05       
C           84.59       62.15       61.89       
C           84.88       62.23       59.59       
C           85.44       62.43       60.8        
C           90.2        62.73       62.3        
O           87.47       62.51       63.72       
O           87.28       64.27       58.63       
C           84.74       62.22       64.41       
C           89.92       64.97       58.0        
H           90.78       65.61       58.33       
H           90.24778    64.47121    57.08793    
H           89.08       65.7        57.76       
H           84.02       61.39       64.56       
H           84.20002    63.13943    64.63621    
H           85.57       62.01       65.1        
H           83.16       61.54       58.43       
H           85.49       62.42       58.72       
H           89.74       62.44       63.22       
H           92.02       62.39       63.22       
C           83.59       61.7        59.42       
N           83.37       61.6        61.83       
C           82.82       61.51       60.53       
C           96.07       63.86       60.29       
C           95.93       63.8        61.67       
S           94.47       63.84       59.59       
H           94.44       63.38       63.23       
H           96.75       63.74       62.31       
C           94.63       63.56       62.17       
C           93.68       63.77       61.17       
C           105.55      60.98       55.31       
N           104.39      60.95       54.65       
C           105.49      61.35       56.65       
C           103.24      61.28       55.33       
C           103.11      61.74       56.62       
C           101.67      61.96       56.9        
C           101.04      61.78       55.49       
N           102.04      61.33       54.68       
C           100.89      62.33       57.97       
C           101.5       62.24       59.37       
N           100.51      62.57       60.28       
C           99.41       62.96       59.56       
C           98.49       63.38       57.4        
C           99.56       62.89       58.15       
C           104.32      61.81       57.26       
O           102.57      61.78       59.71       
O           99.9        61.87       55.19       
C           100.62      62.28       61.72       
C           101.81      60.64       53.4        
H           100.79      60.23       53.47       
H           101.94554   61.28205    52.52966    
H           102.41      59.78       53.32       
H           101.1       61.34       61.92       
H           101.14951   63.08143    62.2352     
H           99.61       62.18       62.14       
H           96.47       63.93       57.42       
H           98.48       63.39       56.31       
H           104.42      62.26       58.22       
H           106.44      61.43       57.21       
C           97.29       63.68       58.09       
N           98.32       63.39       60.19       
C           97.27       63.73       59.44       
C           109.21      60.26       54.2        
C           108.47      59.7        53.23       
S           108.29      60.89       55.48       
H           106.31      59.91       52.62       
H           108.79      59.27       52.28       
C           107.09      60.04       53.44       
C           106.8       60.63       54.67       
C           119.99      57.49       55.94       
N           119.13      56.7        55.21       
C           119.55      58.66       56.43       
C           117.89      57.11       55.02       
C           117.29      58.3        55.49       
C           115.86      58.39       55.02       
C           115.74      57.09       54.22       
N           116.94      56.39       54.34       
C           114.77      59.25       55.16       
C           114.79      60.48       56.13       
N           113.62      61.17       55.95       
C           112.72      60.5        55.13       
C           112.6       58.8        53.53       
C           113.4       59.38       54.53       
C           118.26      59.08       56.2        
O           115.67      60.88       56.79       
O           114.86      56.63       53.57       
C           113.52      62.48       56.42       
C           117.15      55.11       53.7        
H           116.26      54.54       53.85       
H           117.41555   55.17128    52.64462    
H           117.88      54.59       54.25       
H           112.56      62.57       56.89       
H           113.69056   63.20489    55.62404    
H           114.4       62.67       57.12       
H           110.72      58.46       52.77       
H           112.98      57.92       53.06       
H           117.89      59.99       56.58       
H           120.22      59.32       57.0        
C           111.26      59.13       53.41       
N           111.39      60.83       55.09       
C           110.64      60.1        54.24       
C           123.42      55.95       55.47       
C           123.6       56.99       56.34       
S           121.78      55.72       54.9        
H           122.14      58.36       57.35       
H           124.56      57.32       56.94       
C           122.38      57.57       56.64       
C           121.36      57.04       55.93       
C           130.65      49.18       50.53       
N           131.07      50.1        51.4        
C           129.35      49.22       49.96       
C           130.1       50.8        51.93       
C           128.69      50.86       51.66       
C           128.06      51.77       52.7        
C           129.24      52.15       53.55       
N           130.39      51.51       53.05       
C           126.81      52.33       52.95       
C           125.58      51.76       52.22       
N           124.48      52.51       52.58       
C           124.87      53.42       53.54       
C           126.68      54.42       54.64       
C           126.25      53.4        53.79       
C           128.35      50.1        50.47       
O           125.44      50.77       51.51       
O           129.31      52.87       54.53       
C           123.23      52.49       51.83       
C           131.56      51.31       53.89       
H           131.83      50.28       53.9        
H           132.38951   51.98082    53.66639    
H           131.24      51.56       54.86       
H           122.74      53.48       51.78       
H           122.54045   51.73776    52.21308    
H           123.43      52.23       50.77       
H           126.08      55.86       56.03       
H           127.7       54.44       54.9        
H           127.38      50.02       50.1        
H           129.03      48.53       49.26       
C           125.74      55.22       55.25       
N           124.01      54.21       54.1        
C           124.39      55.03       54.97       
C           133.57      46.63       50.18       
C           132.55      46.22       49.35       
S           133.14      48.08       50.99       
H           130.49      46.79       48.88       
H           132.6       45.19       48.88       
C           131.42      47.03       49.37       
C           131.65      48.12       50.12       
C           143.02      41.33       52.81       
N           142.84      42.61       53.26       
C           142.07      40.68       52.06       
C           141.7       43.17       52.86       
C           140.63      42.65       52.06       
C           139.56      43.6        52.03       
C           140.13      44.76       52.89       
N           141.38      44.41       53.32       
C           138.27      43.69       51.44       
C           137.71      42.55       50.66       
N           136.42      42.83       50.11       
C           136.04      44.08       50.5        
C           136.86      45.86       51.92       
C           137.13      44.59       51.32       
C           140.88      41.35       51.7        
O           138.15      41.45       50.51       
O           139.81      45.88       53.02       
C           135.92      42.23       48.9        
C           142.33      45.32       54.02       
H           143.43      45.14       53.72       
H           142.09199   45.46281    55.07407    
H           142.17      46.3        53.52       
H           136.66      41.67       48.45       
H           135.00121   41.65752    49.02722    
H           135.75      42.96       48.17       
H           135.75      47.55       51.75       
H           137.65      46.27       52.6        
H           140.11      40.75       51.26       
H           142.23      39.64       51.86       
C           135.8       46.54       51.37       
N           134.98      44.71       50.14       
C           134.88      46.04       50.46       
C           146.57      40.17       53.97       
C           146.12      39.21       53.13       
S           145.43      41.51       54.07       
H           144.19      38.85       51.96       
H           146.66      38.28       52.99       
C           144.77      39.47       52.63       
C           144.24      40.66       53.11       
C           155.77      41.23       60.15       
N           155.65      40.06       59.39       
C           155.0       42.36       59.95       
C           154.57      40.09       58.64       
C           153.53      41.1        58.52       
C           152.52      40.52       57.65       
C           153.04      39.18       57.29       
N           154.29      39.05       57.92       
C           151.29      40.94       57.17       
C           150.71      42.31       57.52       
N           149.48      42.39       56.93       
C           149.22      41.37       56.08       
C           149.86      39.26       55.54       
C           150.25      40.42       56.22       
C           153.86      42.32       59.16       
O           151.09      43.07       58.37       
O           152.47      38.23       56.83       
C           148.57      43.52       57.04       
C           155.23      38.02       57.56       
H           154.75      37.02       57.42       
H           155.76831   38.31098    56.65797    
H           155.98      37.75       58.38       
H           147.56      43.25       57.36       
H           148.51946   44.16983    56.16635    
H           148.92      44.19       57.89       
H           148.46      38.18       54.34       
H           150.46      38.39       55.53       
H           153.34      43.3        58.94       
H           155.21      43.23       60.52       
C           148.62      39.13       54.83       
N           148.01      41.3        55.49       
C           147.76      40.21       54.74       
C           159.16      40.45       61.91       
C           158.61      41.52       62.63       
S           158.27      40.12       60.42       
H           156.56      42.47       62.62       
H           159.07      41.84       63.57       
C           157.31      41.85       62.09       
C           157.01      41.22       60.97       
H           60.95       19.74       32.24       
H           160.08      39.98       62.28       
