392

C           66.5        23.8        21.64       
N           66.53       23.4        20.39       
C           65.78       24.94       21.98       
C           65.66       23.94       19.52       
C           64.77       25.0        19.76       
C           64.05       25.34       18.52       
C           64.63       24.3        17.47       
N           65.53       23.49       18.25       
C           63.05       26.27       18.19       
C           62.53       27.3        19.14       
N           61.55       28.01       18.55       
C           61.3        27.58       17.24       
C           62.04       26.06       15.64       
C           62.23       26.54       16.93       
C           64.84       25.46       21.07       
O           62.75       27.42       20.35       
O           64.47       24.12       16.21       
C           60.57       28.88       19.22       
C           66.2        22.38       17.6        
H           65.58       22.2        16.76       
H           67.25484    22.55581    17.38903    
H           66.07       21.54       18.25       
H           59.57       28.71       18.81       
H           60.83816    29.93089    19.11129    
H           60.61       28.65       20.29       
H           61.19       26.34       13.71       
H           62.64       25.31       15.27       
H           64.25       26.26       21.45       
H           65.97       25.37       22.92       
C           61.25       26.72       14.75       
N           60.42       28.12       16.43       
C           60.42       27.74       15.11       
C           69.2        22.74       24.41       
C           69.47       22.06       23.24       
S           67.81       23.81       24.09       
H           68.57       21.88       21.16       
H           70.25       21.24       23.14       
C           68.57       22.34       22.15       
C           67.53       23.18       22.51       
C           71.12       22.7        35.44       
N           71.81       21.79       34.71       
C           70.2        23.48       34.92       
C           71.46       21.73       33.43       
C           70.59       22.63       32.76       
C           70.66       22.25       31.28       
C           71.53       21.05       31.24       
N           72.0        20.85       32.51       
C           70.06       22.73       30.13       
C           68.86       23.71       30.14       
N           68.48       24.02       28.91       
C           69.21       23.32       27.96       
C           70.93       21.74       27.7        
C           70.17       22.47       28.64       
C           69.96       23.56       33.54       
O           68.37       24.31       31.12       
O           71.81       20.26       30.29       
C           67.38       24.96       28.68       
C           72.63       19.58       32.86       
H           72.62       18.81       32.07       
H           73.65311    19.72721    33.20594    
H           72.02       19.15       33.72       
H           66.72       24.65       27.84       
H           67.67839    26.00089    28.55509    
H           66.76       24.9        29.53       
H           71.36       21.26       25.59       
H           71.69       21.1        28.05       
H           69.28       24.26       33.08       
H           69.7        24.15       35.59       
C           70.78       21.92       26.3        
N           68.94       23.33       26.68       
C           69.67       22.69       25.8        
C           71.56       23.54       39.25       
C           72.57       22.63       38.91       
S           70.8        24.08       37.84       
H           72.93       21.28       37.12       
H           73.2        22.19       39.6        
C           72.42       22.13       37.54       
C           71.43       22.8        36.84       
C           70.96       30.52       47.6        
N           71.84       29.53       47.59       
C           69.97       30.68       46.68       
C           71.77       28.74       46.53       
C           70.8        28.75       45.51       
C           71.09       27.6        44.66       
C           72.3        26.9        45.35       
N           72.61       27.65       46.46       
C           70.59       27.04       43.49       
C           69.53       27.74       42.73       
N           69.41       27.1        41.46       
C           70.28       25.95       41.41       
C           71.69       24.67       42.79       
C           70.93       25.85       42.67       
C           69.84       29.76       45.6        
O           68.93       28.73       43.01       
O           73.16       26.13       45.0        
C           68.25       27.24       40.66       
C           73.75       27.47       47.38       
H           74.28       28.4        47.5        
H           73.53782    27.14466    48.39845    
H           74.47       26.81       46.93       
H           67.4        27.57       41.25       
H           68.4712     27.87596    39.80284    
H           67.98       26.24       40.49       
H           72.8        23.13       41.79       
H           72.04       24.5        43.79       
H           69.12       29.9        44.86       
H           69.27       31.54       46.75       
C           72.01       23.91       41.67       
N           70.36       25.12       40.38       
C           71.34       24.21       40.46       
C           71.93       32.68       50.79       
C           71.13       33.45       50.06       
S           72.29       31.2        49.91       
H           69.92       33.32       48.2        
H           70.8        34.39       50.46       
C           70.6        32.84       48.88       
C           71.07       31.53       48.74       
C           75.32       35.82       60.73       
N           76.06       34.99       59.98       
C           74.01       36.09       60.4        
C           75.62       34.59       58.8        
C           74.3        34.81       58.34       
C           74.14       34.15       57.04       
C           75.49       33.38       56.92       
N           76.32       33.79       57.97       
C           73.18       34.18       56.02       
C           72.02       35.15       56.01       
N           71.34       35.0        54.73       
C           71.95       34.06       53.99       
C           73.71       32.44       54.12       
C           73.04       33.47       54.77       
C           73.55       35.57       59.2        
O           71.54       35.83       56.93       
O           75.88       32.58       56.06       
C           70.11       35.74       54.32       
C           77.66       33.29       58.24       
H           77.78       32.18       57.85       
H           78.40445    33.99191    57.86423    
H           77.68       33.26       59.36       
H           69.35       35.37       54.98       
H           70.27185    36.80959    54.4537     
H           69.87       35.43       53.37       
H           73.79       31.3        52.3        
H           74.39       31.75       54.63       
H           72.55       35.75       59.02       
H           73.45       36.82       61.04       
C           73.33       32.19       52.84       
N           71.51       33.79       52.77       
C           72.29       32.87       52.16       
C           77.64       37.71       63.19       
C           76.33       38.0        63.44       
S           77.71       36.41       62.04       
H           74.29       37.19       62.83       
H           75.97       38.8        64.07       
C           75.37       37.15       62.74       
C           75.95       36.31       61.88       
C           86.68       42.98       66.84       
N           86.7        42.21       65.75       
C           85.59       42.97       67.71       
C           85.68       41.37       65.53       
C           84.41       41.43       66.25       
C           83.48       40.54       65.45       
C           84.4        39.91       64.4        
N           85.66       40.55       64.44       
C           82.08       40.36       65.46       
C           81.22       41.37       66.15       
N           79.9        41.01       65.9        
C           79.87       39.87       65.09       
C           81.27       38.36       63.94       
C           81.17       39.45       64.76       
C           84.42       42.23       67.39       
O           81.47       42.42       66.73       
O           84.16       39.0        63.58       
C           78.71       41.78       66.29       
C           86.9        40.23       63.66       
H           87.27       39.25       63.9        
H           86.69738    40.23724    62.58902    
H           87.64       40.93       63.98       
H           77.93       41.13       66.39       
H           78.54367    42.60471    65.59697    
H           78.94       42.27       67.22       
H           80.14       36.77       63.03       
H           82.21       37.95       63.6        
H           83.55       42.21       68.05       
H           85.57       43.57       68.63       
C           80.1        37.68       63.53       
N           78.75       39.33       64.61       
C           78.89       38.25       63.81       
C           89.83       45.32       66.72       
C           89.12       45.62       67.83       
S           89.13       43.98       65.91       
H           87.36       44.93       68.86       
H           89.37       46.47       68.43       
C           88.03       44.79       68.05       
C           87.78       43.91       67.0        
C           98.28       50.68       61.67       
N           97.89       49.48       61.31       
C           97.63       51.32       62.69       
C           96.83       48.88       61.83       
C           96.05       49.39       62.83       
C           95.09       48.31       63.21       
C           95.52       47.13       62.34       
N           96.56       47.54       61.61       
C           94.12       48.2        64.2        
C           93.71       49.34       65.12       
N           92.63       49.1        65.9        
C           92.32       47.79       65.75       
C           92.96       45.78       64.55       
C           93.13       47.19       64.67       
C           96.48       50.7        63.2        
O           94.16       50.43       65.22       
O           95.08       46.01       62.33       
C           92.26       49.88       67.07       
C           97.63       46.66       61.11       
H           97.56       45.57       61.44       
H           97.74008    46.56368    60.02986    
H           98.54       47.0        61.6        
H           91.2        49.67       67.18       
H           92.85768    49.69718    67.963      
H           92.37       50.92       66.76       
H           91.61       44.14       65.05       
H           93.53       45.17       63.89       
H           96.0        51.24       64.01       
H           97.93       52.28       63.12       
C           91.86       45.2        65.19       
N           91.32       47.17       66.42       
C           91.04       45.91       66.09       
C           101.61      52.33       60.4        
C           101.19      51.58       59.37       
S           100.52      52.38       61.76       
H           99.35       50.22       59.14       
H           101.66      51.59       58.41       
C           99.91       50.9        59.75       
C           99.53       51.18       61.04       
C           110.81      58.35       62.37       
N           110.77      57.42       61.42       
C           109.77      58.61       63.29       
C           109.6       56.82       61.18       
C           108.45      57.02       61.96       
C           107.4       56.12       61.32       
C           108.12      55.33       60.27       
N           109.41      55.87       60.22       
C           106.07      55.73       61.63       
C           105.41      56.01       63.02       
N           104.14      55.43       63.1        
C           103.87      54.77       61.88       
C           104.77      54.33       59.68       
C           104.95      54.97       60.94       
C           108.56      57.86       63.06       
O           105.79      56.59       64.0        
O           107.77      54.4        59.57       
C           103.33      55.2        64.28       
C           110.43      55.51       59.26       
H           110.13      54.52       58.8        
H           110.56383   56.24256    58.46405    
H           111.32      55.43       59.79       
H           103.06      54.21       64.27       
H           102.39983   55.76805    64.2942     
H           103.94      55.34       65.21       
H           103.59      52.89       58.57       
H           105.5       54.39       58.99       
H           107.68      58.06       63.67       
H           109.87      59.28       64.14       
C           103.68      53.45       59.49       
N           102.83      53.94       61.66       
C           102.83      53.21       60.49       
C           114.56      58.58       62.93       
C           114.09      59.62       63.6        
S           113.35      57.72       62.0        
H           111.99      60.29       64.1        
H           114.63      60.38       64.11       
C           112.67      59.62       63.59       
C           112.16      58.66       62.77       
C           125.19      56.04       60.53       
N           124.82      57.03       61.39       
C           124.22      55.25       60.03       
C           123.48      57.37       61.45       
C           122.44      56.68       60.93       
C           121.2       57.43       61.39       
C           121.72      58.77       61.97       
N           123.08      58.58       62.03       
C           119.83      57.12       61.37       
C           119.22      56.15       60.34       
N           117.87      56.17       60.45       
C           117.51      57.13       61.41       
C           118.35      58.67       62.98       
C           118.6       57.69       62.0        
C           122.88      55.5        60.3        
O           119.8       55.43       59.54       
O           121.13      59.69       62.44       
C           117.03      55.24       59.64       
C           124.02      59.3        62.89       
H           124.8       58.58       63.16       
H           124.4534    60.17427    62.40429    
H           123.53      59.61       63.79       
H           116.19      55.72       59.2        
H           116.61955   54.37664    60.16368    
H           117.65      54.91       58.82       
H           116.8       59.57       64.35       
H           119.15      59.06       63.62       
H           122.15      54.84       59.9        
H           124.48      54.31       59.47       
C           117.06      58.89       63.47       
N           116.22      57.42       61.7        
C           116.0       58.28       62.76       
C           129.03      55.95       60.59       
C           128.66      55.24       59.46       
S           127.68      56.63       61.46       
H           126.71      54.76       58.54       
H           129.34      54.59       58.88       
C           127.22      55.25       59.38       
C           126.55      55.88       60.35       
C           139.0       53.55       64.65       
N           138.35      54.51       65.21       
C           138.45      52.96       63.5        
C           137.18      54.88       64.63       
C           136.57      54.36       63.45       
C           135.32      55.12       63.27       
C           135.27      56.08       64.47       
N           136.32      55.74       65.27       
C           134.35      54.93       62.32       
C           134.6       54.35       60.9        
N           133.42      54.33       60.22       
C           132.47      54.97       60.88       
C           132.07      56.29       62.84       
C           132.99      55.51       62.12       
C           137.28      53.32       62.89       
O           135.71      53.97       60.53       
O           134.38      56.84       64.81       
C           133.15      53.58       58.97       
C           136.5       56.23       66.65       
H           137.64      56.32       66.79       
H           136.07516   55.47237    67.3085     
H           135.99      57.17       66.7        
H           134.04      53.49       58.38       
H           132.76291   52.56925    59.09903    
H           132.43      54.19       58.43       
H           130.06      57.07       62.96       
H           132.29      56.66       63.86       
H           136.88      52.75       62.04       
H           138.94      52.08       63.08       
C           130.82      56.53       62.31       
N           131.23      55.1        60.48       
C           130.4       55.95       61.12       
C           141.78      52.38       67.25       
C           142.19      51.96       66.02       
S           140.49      53.55       67.08       
H           141.28      51.82       64.08       
H           143.06      51.39       65.79       
C           141.2       52.29       65.04       
C           140.16      53.11       65.47       
C           146.58      51.43       77.24       
N           147.21      51.03       76.11       
C           145.25      51.89       77.2        
C           146.52      51.05       74.97       
C           145.22      51.54       74.81       
C           144.93      51.45       73.29       
C           146.16      50.78       72.74       
N           147.04      50.63       73.78       
C           143.91      51.9        72.47       
C           142.85      52.89       72.94       
N           142.07      53.34       71.94       
C           142.48      52.7        70.77       
C           143.97      50.96       69.93       
C           143.6       51.81       71.03       
C           144.64      51.97       75.97       
O           142.8       53.41       74.02       
O           146.56      50.65       71.62       
C           141.14      54.46       72.1        
C           148.45      50.24       73.57       
H           148.98      50.71       74.45       
H           148.602     49.16152    73.61343    
H           148.81      50.54       72.6        
H           140.17      54.12       71.84       
H           141.49602   55.38146    71.63927    
H           141.02      54.69       73.15       
H           143.62      50.63       67.91       
H           144.74      50.26       70.14       
H           143.55      52.23       75.96       
H           144.81      52.48       78.04       
C           143.37      51.25       68.73       
N           141.99      52.94       69.56       
C           142.41      52.24       68.51       
C           149.5       51.17       79.87       
C           148.45      51.73       80.5        
S           149.16      50.99       78.21       
H           146.31      52.19       80.1        
H           148.66      52.03       81.51       
C           147.22      51.79       79.76       
C           147.49      51.53       78.42       
H           60.36       28.48       14.36       
H           150.3       50.68       80.43       
