392

C           57.93       29.24       31.1        
N           58.79       28.2        30.71       
C           56.93       29.74       30.3        
C           58.45       27.7        29.5        
C           57.46       28.13       28.55       
C           57.49       27.18       27.36       
C           58.61       26.14       27.84       
N           59.09       26.55       29.08       
C           56.76       27.04       26.16       
C           55.49       27.9        25.88       
N           54.9        27.47       24.68       
C           55.71       26.58       24.1        
C           57.5        25.07       24.54       
C           56.77       26.15       24.93       
C           56.73       29.26       29.0        
O           55.0        28.77       26.54       
O           59.28       25.26       27.2        
C           53.44       27.54       24.41       
C           59.93       25.62       29.84       
H           60.19       24.67       29.38       
H           60.91133    26.00124    30.1224     
H           59.5        25.36       30.74       
H           52.92       26.56       24.64       
H           53.24769    27.9175     23.4057     
H           53.01       28.31       25.07       
H           57.89       23.57       22.91       
H           58.31       24.68       25.23       
H           55.86       29.58       28.44       
H           56.2        30.45       30.67       
C           57.27       24.4        23.29       
N           55.47       25.97       22.95       
C           56.17       24.92       22.57       
C           59.44       30.08       34.62       
C           58.25       30.75       34.47       
S           59.73       29.07       33.18       
H           56.7        31.15       32.9        
H           57.87       31.34       35.28       
C           57.59       30.61       33.19       
C           58.28       29.76       32.43       
C           64.61       30.01       44.49       
N           65.27       29.54       43.42       
C           63.35       30.46       44.33       
C           64.6        29.43       42.27       
C           63.31       29.98       41.99       
C           63.03       29.65       40.54       
C           64.38       29.2        40.03       
N           65.24       28.94       41.13       
C           61.98       29.71       39.74       
C           60.62       29.91       40.37       
N           59.67       30.11       39.37       
C           60.28       29.91       38.13       
C           62.4        29.65       37.02       
C           61.69       29.68       38.27       
C           62.68       30.45       43.13       
O           60.26       29.81       41.52       
O           64.65       28.71       38.94       
C           58.32       30.59       39.61       
C           66.12       27.78       41.08       
H           65.74       27.1        40.37       
H           67.16183    28.01711    40.86445    
H           66.05       27.4        42.12       
H           57.66       30.2        38.91       
H           58.23014    31.67521    39.56161    
H           58.02       30.33       40.64       
H           62.2        29.71       34.82       
H           63.5        29.53       36.98       
H           61.7        30.88       43.06       
H           62.93       30.99       45.16       
C           61.69       29.72       35.79       
N           59.63       30.07       36.99       
C           60.29       29.91       35.82       
C           66.15       30.95       47.96       
C           67.2        30.66       47.13       
S           64.65       30.71       47.08       
H           67.51       30.12       44.95       
H           68.22       30.54       47.46       
C           66.8        30.33       45.76       
C           65.48       30.35       45.63       
C           65.01       31.98       58.95       
N           66.16       31.97       58.4        
C           63.86       31.82       58.22       
C           66.21       31.79       57.07       
C           65.11       31.67       56.18       
C           65.72       31.55       54.81       
C           67.21       31.53       55.07       
N           67.41       31.56       56.47       
C           65.23       31.48       53.49       
C           63.71       31.55       53.18       
N           63.56       31.43       51.83       
C           64.81       31.36       51.27       
C           67.08       31.06       51.59       
C           65.85       31.26       52.18       
C           63.88       31.75       56.78       
O           62.66       31.62       53.87       
O           68.19       31.29       54.38       
C           62.35       31.08       51.19       
C           68.63       31.94       57.07       
H           68.52       32.82       57.7        
H           69.05589    31.1663     57.70883    
H           69.34       32.06       56.32       
H           61.83       30.34       51.83       
H           61.7337     31.91163    50.84844    
H           62.52       30.37       50.34       
H           68.14       30.81       49.69       
H           67.88       30.98       52.2        
H           62.93       31.66       56.16       
H           62.9        31.75       58.77       
C           67.21       30.95       50.19       
N           64.96       31.19       49.98       
C           66.09       31.03       49.4        
C           65.94       32.4        62.8        
C           64.63       32.75       62.64       
S           66.62       31.99       61.29       
H           63.09       32.63       61.05       
H           63.98       33.17       63.42       
C           64.15       32.44       61.33       
C           65.14       32.17       60.38       
C           71.59       33.11       72.29       
N           72.06       32.39       71.26       
C           70.47       33.86       72.11       
C           71.37       32.39       70.09       
C           70.16       33.18       69.8        
C           69.8        32.99       68.35       
C           70.91       32.01       67.88       
N           71.76       31.72       68.91       
C           68.75       33.35       67.59       
C           67.69       34.42       67.97       
N           66.84       34.7        66.9        
C           67.22       33.85       65.86       
C           68.6        32.0        65.23       
C           68.29       32.97       66.23       
C           69.72       33.8        70.91       
O           67.53       34.94       69.07       
O           71.11       31.48       66.82       
C           65.47       35.26       67.06       
C           72.81       30.73       68.84       
H           72.77       30.25       67.89       
H           73.81391    31.1257     68.99388    
H           72.7        30.03       69.62       
H           65.11       35.29       68.1        
H           65.34532    36.21341    66.54662    
H           64.8        34.62       66.56       
H           68.0        30.97       63.51       
H           69.4        31.26       65.38       
H           68.82       34.34       70.77       
H           70.0        34.4        72.92       
C           67.78       31.79       64.13       
N           66.52       33.7        64.82       
C           66.8        32.71       63.91       
C           74.32       32.94       75.09       
C           73.22       33.71       75.56       
S           73.86       32.15       73.58       
H           71.25       34.41       74.77       
H           73.17       34.26       76.46       
C           72.16       33.83       74.58       
C           72.38       33.07       73.51       
C           85.04       33.5        77.4        
N           84.63       32.28       77.01       
C           84.11       34.5        77.61       
C           83.29       32.01       76.89       
C           82.25       32.94       77.09       
C           80.93       32.3        77.01       
C           81.25       30.95       76.33       
N           82.67       30.88       76.44       
C           79.64       32.78       77.2        
C           79.36       33.82       78.22       
N           78.01       34.17       78.04       
C           77.33       33.36       77.05       
C           77.79       31.55       75.62       
C           78.31       32.45       76.57       
C           82.77       34.2        77.48       
O           80.09       34.46       79.02       
O           80.54       29.97       76.07       
C           77.47       35.4        78.64       
C           83.42       29.77       75.9        
H           82.87       28.84       76.06       
H           83.6743     29.88625    74.84647    
H           84.26       29.73       76.5        
H           76.52       35.29       79.17       
H           77.35606    36.12636    77.83531    
H           78.23       35.78       79.32       
H           76.11       30.88       74.44       
H           78.47       30.81       75.18       
H           82.06       34.95       77.61       
H           84.48       35.49       77.83       
C           76.45       31.61       75.23       
N           76.13       33.61       76.55       
C           75.68       32.74       75.63       
C           88.93       33.76       76.8        
C           88.59       34.7        77.74       
S           87.48       32.83       76.41       
H           86.83       35.56       78.76       
H           89.32       35.25       78.21       
C           87.18       34.85       78.02       
C           86.5        33.8        77.41       
C           99.02       33.49       72.15       
N           98.03       32.84       71.48       
C           98.79       33.93       73.47       
C           96.83       32.86       72.06       
C           96.45       33.43       73.32       
C           95.07       33.24       73.53       
C           94.6        32.57       72.23       
N           95.73       32.41       71.44       
C           94.23       33.49       74.63       
C           94.74       34.1        75.97       
N           93.63       34.31       76.73       
C           92.49       33.89       76.08       
C           91.57       32.9        74.14       
C           92.74       33.36       74.79       
C           97.56       33.87       74.03       
O           95.86       34.41       76.37       
O           93.49       32.3        71.9        
C           93.73       34.77       78.11       
C           95.68       32.22       70.03       
H           94.92       31.51       69.82       
H           95.56423    33.15297    69.47839    
H           96.58       31.72       69.8        
H           92.83       35.28       78.34       
H           93.96068    33.96611    78.80903    
H           94.48       35.59       78.11       
H           89.37       32.48       74.44       
H           91.62       32.59       73.13       
H           97.42       34.16       75.05       
H           99.55       34.18       74.18       
C           90.3        32.92       74.84       
N           91.26       33.99       76.68       
C           90.2        33.45       76.14       
C           102.64      33.97       71.23       
C           102.13      33.03       70.32       
S           101.41      34.66       72.27       
H           100.26      32.01       70.07       
H           102.73      32.62       69.47       
C           100.79      32.75       70.6        
C           100.31      33.51       71.6        
C           111.93      40.05       71.55       
N           111.34      39.67       70.44       
C           111.38      39.64       72.81       
C           110.22      39.06       70.54       
C           109.48      38.64       71.66       
C           108.3       37.85       71.23       
C           108.6       37.74       69.72       
N           109.74      38.46       69.39       
C           107.19      37.2        71.82       
C           106.83      37.45       73.29       
N           105.62      36.82       73.56       
C           105.25      36.03       72.49       
C           105.98      35.31       70.36       
C           106.19      36.21       71.37       
C           110.14      38.95       72.89       
O           107.32      38.28       74.04       
O           107.99      37.19       68.78       
C           104.77      37.24       74.75       
C           110.49      38.34       68.16       
H           110.48      37.29       67.94       
H           110.02745   38.90217    67.34876    
H           111.53      38.62       68.38       
H           104.25      36.33       75.06       
H           104.10871   38.09124    74.58819    
H           105.4       37.41       75.54       
H           104.62      34.09       69.27       
H           106.61      35.21       69.54       
H           109.73      38.64       73.91       
H           111.9       39.8        73.76       
C           104.84      34.57       70.23       
N           104.24      35.15       72.45       
C           103.99      34.51       71.26       
C           115.57      41.26       70.58       
C           115.46      41.3        71.91       
S           114.06      40.74       69.88       
H           113.79      40.96       73.37       
H           116.27      41.7        72.56       
C           114.12      41.0        72.37       
C           113.26      40.65       71.36       
C           122.4       44.79       62.65       
N           122.88      44.27       63.79       
C           121.06      44.67       62.37       
C           122.08      43.82       64.7        
C           120.68      43.64       64.6        
C           120.2       43.16       65.9        
C           121.55      43.08       66.78       
N           122.59      43.38       65.93       
C           118.9       42.73       66.31       
C           117.67      42.69       65.38       
N           116.59      42.3        66.14       
C           117.02      42.1        67.49       
C           118.83      42.22       69.03       
C           118.41      42.36       67.68       
C           120.26      44.08       63.33       
O           117.51      43.18       64.27       
O           121.67      42.5        67.84       
C           115.31      41.98       65.62       
C           123.91      43.52       66.41       
H           124.55      43.7        65.58       
H           124.02925   44.36877    67.0834     
H           124.12      42.55       66.87       
H           114.5       42.08       66.39       
H           115.1734    40.93753    65.33242    
H           115.17      42.68       64.78       
H           118.21      41.84       71.11       
H           119.85      42.28       69.33       
H           119.21      43.99       63.03       
H           120.57      44.95       61.41       
C           117.93      41.98       70.05       
N           116.15      41.84       68.43       
C           116.62      41.71       69.7        
C           125.43      45.38       60.28       
C           124.3       45.82       59.69       
S           125.02      44.65       61.8        
H           122.15      45.92       60.2        
H           124.27      46.24       58.64       
C           123.13      45.68       60.51       
C           123.36      45.04       61.64       
C           135.58      46.27       55.84       
N           135.41      46.44       57.18       
C           134.49      45.98       55.03       
C           134.18      46.37       57.67       
C           132.99      46.17       56.91       
C           131.93      46.15       57.91       
C           132.59      46.45       59.29       
N           133.95      46.45       59.04       
C           130.5       46.01       57.86       
C           129.77      46.1        56.55       
N           128.41      46.24       56.79       
C           128.2       45.93       58.09       
C           129.17      45.48       60.19       
C           129.37      45.79       58.83       
C           133.16      45.95       55.52       
O           130.23      46.39       55.47       
O           132.08      46.52       60.39       
C           127.47      47.05       55.91       
C           135.01      46.4        59.95       
H           135.91      46.77       59.45       
H           135.12585   45.40083    60.36994    
H           134.84      47.16       60.73       
H           128.14      47.78       55.37       
H           126.93869   46.39449    55.21999    
H           126.8       47.61       56.6        
H           127.8       45.02       61.66       
H           130.02      45.3        60.88       
H           132.32      45.63       54.87       
H           134.65      45.62       54.07       
C           127.89      45.32       60.64       
N           126.97      45.84       58.48       
C           126.79      45.43       59.78       
C           139.42      45.52       55.25       
C           138.97      45.95       54.01       
S           138.19      45.56       56.46       
H           136.86      46.82       53.4        
H           139.62      46.17       53.14       
C           137.52      46.37       54.18       
C           136.99      46.13       55.42       
C           149.11      42.44       58.86       
N           149.19      43.31       57.94       
C           147.88      42.08       59.46       
C           148.04      43.82       57.52       
C           146.77      43.68       58.08       
C           145.82      44.52       57.33       
C           146.66      45.09       56.19       
N           147.91      44.56       56.36       
C           144.46      44.67       57.47       
C           143.76      44.43       58.84       
N           142.39      44.62       58.62       
C           142.13      44.98       57.32       
C           143.24      45.28       55.22       
C           143.34      45.05       56.55       
C           146.75      42.81       59.12       
O           144.2       44.22       59.93       
O           146.24      45.81       55.35       
C           141.43      44.42       59.7        
C           149.01      45.0        55.58       
H           149.91      44.65       55.92       
H           148.87178   44.65809    54.55428    
H           149.09      46.07       55.56       
H           140.52      44.05       59.25       
H           141.23732   45.30489    60.30658    
H           141.96      43.71       60.29       
H           141.77      45.69       53.67       
H           144.05      45.26       54.63       
H           145.83      42.66       59.7        
H           147.82      41.36       60.26       
C           141.96      45.49       54.8        
N           140.9       45.12       56.93       
C           140.82      45.41       55.66       
C           152.69      40.77       58.67       
C           152.05      40.16       59.72       
S           151.63      41.98       57.9        
H           150.14      40.21       60.77       
H           152.54      39.34       60.25       
C           150.73      40.59       59.96       
C           150.39      41.66       59.08       
H           55.56       24.13       22.11       
H           153.26      40.18       58.02       
