392

C           65.49       15.62       27.08       
N           65.46       14.38       26.57       
C           65.41       16.74       26.31       
C           65.3        14.34       25.23       
C           65.14       15.5        24.38       
C           64.89       15.01       22.99       
C           65.01       13.49       23.16       
N           65.2        13.21       24.46       
C           64.63       15.55       21.71       
C           64.84       17.05       21.36       
N           64.77       17.22       19.98       
C           64.42       16.01       19.4        
C           63.81       13.77       19.95       
C           64.28       15.0        20.41       
C           65.18       16.76       24.96       
O           65.23       17.93       22.11       
O           65.08       12.56       22.36       
C           64.66       18.46       19.26       
C           64.63       11.94       24.94       
H           63.91       11.61       24.22       
H           65.33875    11.11785    25.03922    
H           64.19       12.13       25.87       
H           63.65       18.43       18.87       
H           65.50763    18.70218    18.61893    
H           64.53       19.28       20.01       
H           63.04       12.7        18.27       
H           63.6        13.01       20.67       
H           65.14       17.68       24.32       
H           65.65       17.73       26.83       
C           63.52       13.62       18.57       
N           64.21       15.88       18.11       
C           63.74       14.66       17.67       
C           66.8        15.35       30.73       
C           66.24       16.64       30.57       
S           66.67       14.42       29.31       
H           65.28       17.8        28.98       
H           66.14       17.32       31.42       
C           65.74       16.85       29.3        
C           65.88       15.72       28.48       
C           69.43       10.87       40.49       
N           69.79       10.21       39.36       
C           68.91       12.11       40.38       
C           69.66       10.86       38.2        
C           69.15       12.15       37.96       
C           69.05       12.37       36.56       
C           69.48       11.02       35.91       
N           69.92       10.26       36.95       
C           68.68       13.44       35.76       
C           68.46       14.86       36.31       
N           68.04       15.68       35.33       
C           67.86       14.94       34.18       
C           68.29       12.83       33.11       
C           68.36       13.62       34.31       
C           68.86       12.81       39.18       
O           68.62       15.27       37.47       
O           69.56       10.71       34.79       
C           67.82       17.13       35.44       
C           70.75       9.15        36.69       
H           71.74       9.17        37.17       
H           70.31387    8.18479     36.94739    
H           70.83       9.2         35.62       
H           66.95       17.51       34.89       
H           68.70613    17.69914    35.15903    
H           67.55       17.19       36.52       
H           67.68       12.73       31.07       
H           68.39       11.75       33.15       
H           68.45       13.85       39.31       
H           68.63       12.7        41.27       
C           67.77       13.38       31.93       
N           67.48       15.51       33.02       
C           67.4        14.73       31.93       
C           69.86       9.7         44.24       
C           70.05       8.64        43.45       
S           69.57       11.11       43.31       
H           70.29       8.23        41.24       
H           70.48       7.69        43.83       
C           70.05       8.99        42.04       
C           69.68       10.26       41.74       
C           70.42       11.16       55.12       
N           71.1        10.14       54.56       
C           69.92       12.13       54.4        
C           71.25       10.19       53.23       
C           70.59       11.03       52.33       
C           70.58       10.43       51.02       
C           71.54       9.22        51.26       
N           71.94       9.2         52.59       
C           70.11       10.78       49.74       
C           69.33       12.08       49.45       
N           69.15       12.16       48.08       
C           69.48       11.0        47.44       
C           70.62       8.96        47.8        
C           70.13       10.14       48.35       
C           69.92       12.11       52.94       
O           69.04       13.05       50.22       
O           71.86       8.38        50.47       
C           68.53       13.34       47.45       
C           73.17       8.61        53.13       
H           73.56       9.31        53.82       
H           72.92563    7.74361     53.74462    
H           73.92       8.46        52.3        
H           67.88       13.84       48.16       
H           69.16836    14.08717    46.97848    
H           67.84       12.87       46.78       
H           71.1        8.05        46.01       
H           71.18       8.23        48.31       
H           69.61       12.96       52.43       
H           69.3        12.93       54.87       
C           70.44       8.75        46.43       
N           69.38       10.9        46.19       
C           69.87       9.74        45.65       
C           70.74       10.87       59.05       
C           70.27       12.19       58.8        
S           70.95       9.99        57.58       
H           69.76       13.31       56.95       
H           70.17       12.89       59.57       
C           70.02       12.33       57.35       
C           70.41       11.29       56.58       
C           72.49       7.02        69.49       
N           73.34       6.76        68.49       
C           71.29       7.6         69.14       
C           73.08       7.13        67.22       
C           72.03       7.93        66.83       
C           72.15       8.18        65.36       
C           73.42       7.44        64.95       
N           74.0        6.92        66.16       
C           71.37       8.9         64.4        
C           70.18       9.77        64.82       
N           69.78       10.54       63.72       
C           70.47       10.17       62.64       
C           72.2        8.67        61.79       
C           71.45       9.14        62.9        
C           71.07       8.11        67.87       
O           69.57       10.06       65.8        
O           74.1        7.46        63.94       
C           68.64       11.43       63.77       
C           75.18       6.08        66.24       
H           75.44       5.66        65.29       
H           76.04739    6.58069     66.67017    
H           74.94       5.18        66.86       
H           67.85       11.07       64.51       
H           68.89835    12.4634     64.00116    
H           68.21       11.49       62.79       
H           72.33       8.74        59.57       
H           72.86       7.79        61.93       
H           70.18       8.62        67.7        
H           70.56       7.85        69.93       
C           71.85       9.12        60.5        
N           70.25       10.71       61.43       
C           70.98       10.21       60.33       
C           74.35       6.02        72.76       
C           73.01       6.03        73.05       
S           74.55       6.52        71.09       
H           71.18       6.43        72.01       
H           72.66       5.84        74.01       
C           72.27       6.39        71.95       
C           72.89       6.66        70.83       
C           82.82       4.01        79.83       
N           83.14       4.35        78.52       
C           81.49       3.94        80.31       
C           82.08       4.61        77.78       
C           80.66       4.59        78.11       
C           79.84       4.9         76.91       
C           80.96       5.18        75.92       
N           82.2        5.0         76.5        
C           78.47       5.0         76.63       
C           77.36       5.0         77.66       
N           76.15       5.17        77.01       
C           76.29       5.32        75.64       
C           77.94       5.48        73.96       
C           77.68       5.24        75.36       
C           80.42       4.24        79.41       
O           77.47       4.99        78.88       
O           80.86       5.51        74.74       
C           74.91       5.49        77.68       
C           83.5        5.28        75.89       
H           83.35       5.28        74.83       
H           83.86226    6.27985     76.12909    
H           84.23       4.55        76.13       
H           74.11       4.88        77.3        
H           74.68878    6.5546      77.60396    
H           75.0        5.12        78.71       
H           77.03       6.06        72.01       
H           78.95       5.52        73.56       
H           79.4        4.15        79.72       
H           81.26       3.82        81.39       
C           76.86       5.81        73.1        
N           75.3        5.61        74.83       
C           75.54       5.85        73.59       
C           86.32       3.07        81.25       
C           85.45       2.83        82.27       
S           85.54       3.62        79.8        
H           83.25       2.92        82.46       
H           85.84       2.51        83.23       
C           84.14       3.14        81.89       
C           84.0        3.53        80.56       
C           97.23       2.82        83.41       
N           96.74       3.71        82.61       
C           96.35       1.95        84.06       
C           95.46       3.74        82.4        
C           94.44       2.92        82.96       
C           93.18       3.26        82.33       
C           93.51       4.33        81.31       
N           94.88       4.54        81.38       
C           91.82       2.9         82.5        
C           91.41       2.15        83.8        
N           90.12       1.88        83.66       
C           89.55       2.47        82.56       
C           89.97       3.77        80.69       
C           90.51       3.13        81.78       
C           94.98       2.01        83.87       
O           92.1        1.82        84.81       
O           92.8        4.87        80.44       
C           89.61       0.78        84.44       
C           95.6        5.18        80.38       
H           96.45       5.72        80.83       
H           96.0878     4.52003     79.66265    
H           95.01       6.0         79.9        
H           88.61       1.03        84.68       
H           89.61       -0.16003    83.88824    
H           90.14       0.73        85.38       
H           88.27       4.23        79.51       
H           90.62       4.22        79.95       
H           94.31       1.27        84.32       
H           96.74       1.19        84.65       
C           88.61       3.79        80.47       
N           88.22       2.51        82.37       
C           87.82       3.07        81.29       
C           101.09      2.03        83.84       
C           100.98      3.38        83.35       
S           99.53       1.28        83.99       
H           99.26       4.88        82.98       
H           101.84      3.95        83.01       
C           99.6        3.88        83.3        
C           98.69       2.83        83.66       
C           109.7       -4.86       84.33       
N           109.86      -3.6        83.91       
C           108.55      -5.25       85.1        
C           108.83      -2.74       84.11       
C           107.56      -3.0        84.74       
C           106.71      -1.84       84.44       
C           107.69      -0.83       83.85       
N           108.89      -1.5        83.57       
C           105.33      -1.5        84.69       
C           104.33      -2.46       85.38       
N           103.03      -1.89       85.25       
C           103.15      -0.64       84.72       
C           104.69      1.05        84.01       
C           104.5       -0.3        84.49       
C           107.45      -4.35       85.23       
O           104.61      -3.6        85.92       
O           107.47      0.26        83.38       
C           101.73      -2.66       85.3        
C           109.98      -0.98       82.73       
H           109.6       -0.49       81.89       
H           110.65027   -0.33795    83.3015     
H           110.49      -1.79       82.22       
H           101.09      -2.36       84.38       
H           101.21568   -2.47427    86.24291    
H           102.09      -3.7        85.2        
H           103.67      2.87        83.46       
H           105.69      1.45        83.88       
H           106.63      -4.68       85.89       
H           108.42      -6.26       85.43       
C           103.53      1.83        83.74       
N           102.07      0.08        84.57       
C           102.29      1.3         83.96       
C           113.25      -5.92       83.37       
C           112.83      -6.9        84.15       
S           112.09      -4.72       83.2        
H           110.8       -7.59       85.11       
H           113.4       -7.71       84.49       
C           111.41      -6.89       84.5        
C           110.89      -5.66       84.1        
C           122.36      -3.39       77.61       
N           122.34      -4.41       78.47       
C           121.29      -2.53       77.38       
C           121.22      -4.55       79.08       
C           120.03      -3.8        78.98       
C           119.04      -4.44       79.93       
C           119.83      -5.52       80.65       
N           121.07      -5.56       80.01       
C           117.69      -4.29       80.24       
C           116.84      -3.09       79.75       
N           115.65      -3.1        80.45       
C           115.53      -4.22       81.28       
C           116.54      -6.31       81.73       
C           116.69      -5.05       81.06       
C           120.07      -2.73       78.09       
O           117.14      -2.2        78.98       
O           119.56      -6.26       81.62       
C           114.57      -2.14       80.2        
C           122.12      -6.61       80.27       
H           122.55      -6.96       79.28       
H           122.90478   -6.21761    80.91672    
H           121.53      -7.49       80.65       
H           113.89      -2.12       81.08       
H           113.93837   -2.33871    79.33417    
H           115.09      -1.13       80.15       
H           115.41      -7.54       83.03       
H           117.28      -7.1        81.64       
H           119.24      -2.02       77.92       
H           121.35      -1.64       76.82       
C           115.47      -6.58       82.56       
N           114.57      -4.47       82.13       
C           114.51      -5.63       82.8        
C           125.84      -3.46       75.78       
C           125.18      -2.32       75.4        
S           124.92      -4.34       76.89       
H           123.46      -1.24       75.88       
H           125.55      -1.61       74.68       
C           124.04      -2.08       76.16       
C           123.65      -3.16       76.94       
C           135.69      -5.26       71.47       
N           135.5       -5.75       72.69       
C           134.66      -4.67       70.71       
C           134.24      -5.66       73.15       
C           133.11      -5.17       72.45       
C           131.95      -5.23       73.34       
C           132.47      -5.91       74.61       
N           133.88      -6.14       74.42       
C           130.64      -4.64       73.19       
C           130.27      -3.64       72.16       
N           129.04      -3.12       72.49       
C           128.55      -3.69       73.65       
C           128.91      -5.41       75.18       
C           129.43      -4.71       74.09       
C           133.32      -4.72       71.13       
O           130.8       -3.15       71.18       
O           131.91      -6.12       75.69       
C           128.39      -1.92       71.86       
C           134.76      -6.8        75.27       
H           135.81      -6.5        75.12       
H           134.69472   -7.88795    75.28451    
H           134.43      -6.61       76.31       
H           129.15      -1.21       71.37       
H           127.59143   -2.1718     71.16215    
H           127.96      -1.33       72.67       
H           127.35      -5.62       76.65       
H           129.44      -6.32       75.51       
H           132.53      -4.43       70.45       
H           134.91      -4.24       69.79       
C           127.7       -5.1        75.77       
N           127.42      -3.35       74.17       
C           127.04      -3.97       75.27       
C           139.4       -5.52       70.53       
C           138.74      -5.9        69.46       
S           138.44      -5.07       71.85       
H           136.48      -6.01       68.91       
H           139.16      -6.12       68.52       
C           137.31      -5.85       69.63       
C           137.05      -5.41       70.9        
C           150.36      -4.24       72.07       
N           149.98      -4.44       70.83       
C           149.49      -3.98       73.15       
C           148.69      -4.45       70.67       
C           147.67      -4.18       71.65       
C           146.31      -4.4        70.95       
C           146.7       -4.69       69.53       
N           148.07      -4.68       69.47       
C           145.01      -4.32       71.35       
C           144.61      -3.89       72.76       
N           143.23      -3.94       72.9        
C           142.66      -4.53       71.76       
C           143.17      -5.44       69.58       
C           143.69      -4.78       70.75       
C           148.14      -3.91       72.89       
O           145.26      -3.52       73.78       
O           146.04      -4.9        68.57       
C           142.46      -2.96       73.71       
C           148.85      -5.04       68.32       
H           148.21      -5.73       67.69       
H           149.34191   -4.18833    67.85012    
H           149.61      -5.76       68.61       
H           141.45      -3.34       73.85       
H           142.36033   -2.02737    73.15469    
H           142.97      -2.86       74.62       
H           141.33      -6.03       68.66       
H           143.78      -5.71       68.71       
H           147.46      -3.66       73.64       
H           149.73      -3.87       74.17       
C           141.73      -5.63       69.59       
N           141.4       -4.68       71.67       
C           140.86      -5.25       70.59       
C           154.17      -4.19       71.67       
C           153.83      -3.85       72.91       
S           152.71      -4.5        70.77       
H           152.13      -3.58       74.25       
H           154.51      -3.51       73.65       
C           152.49      -3.83       73.28       
C           151.74      -4.19       72.21       
H           63.81       14.51       16.59       
H           155.17      -4.34       71.19       
