392

C           60.3        8.95        24.52       
N           60.79       7.79        24.05       
C           59.6        9.9         23.7        
C           60.64       7.57        22.77       
C           60.03       8.4         21.83       
C           60.18       7.76        20.5        
C           60.9        6.44        20.8        
N           61.2        6.46        22.13       
C           59.87       8.16        19.22       
C           59.69       9.65        18.79       
N           59.47       9.67        17.39       
C           59.45       8.45        16.87       
C           59.53       6.12        17.46       
C           59.67       7.46        17.89       
C           59.53       9.64        22.31       
O           59.53       10.63       19.45       
O           61.14       5.47        20.06       
C           59.16       10.86       16.68       
C           61.57       5.24        22.78       
H           61.07       4.34        22.27       
H           62.64945    5.08888     22.7872     
H           61.12       5.26        23.79       
H           58.48       10.67       15.9        
H           60.05455    11.35235    16.2986     
H           58.67       11.64       17.33       
H           59.2        4.85        15.67       
H           59.53       5.3         18.11       
H           58.98       10.33       21.63       
H           59.22       10.75       24.15       
C           59.32       5.87        16.05       
N           59.36       8.19        15.58       
C           59.3        6.94        15.15       
C           61.65       9.49        28.22       
C           60.44       10.08       28.16       
S           62.06       8.8         26.66       
H           58.83       10.39       26.74       
H           60.05       10.61       28.99       
C           59.81       10.01       26.85       
C           60.54       9.28        25.95       
C           66.34       8.37        38.05       
N           67.14       8.41        36.98       
C           64.99       8.51        37.84       
C           66.58       8.51        35.75       
C           65.2        8.72        35.46       
C           65.11       8.85        33.99       
C           66.59       8.66        33.51       
N           67.37       8.45        34.62       
C           64.03       9.35        33.2        
C           62.8        9.94        33.82       
N           62.01       10.34       32.8        
C           62.5        9.96        31.56       
C           64.4        8.76        30.58       
C           63.78       9.26        31.74       
C           64.43       8.81        36.61       
O           62.49       10.29       34.93       
O           67.06       8.73        32.37       
C           60.89       11.21       32.98       
C           68.7        7.9         34.46       
H           68.86       7.51        33.41       
H           69.48173    8.58223     34.79401    
H           68.77       6.98        35.01       
H           60.27       11.12       32.01       
H           61.17102    12.24763    33.16014    
H           60.28       10.85       33.8        
H           64.11       8.44        28.41       
H           65.47       8.35        30.67       
H           63.38       9.13        36.59       
H           64.41       8.64        38.71       
C           63.75       8.82        29.38       
N           61.83       9.95        30.49       
C           62.44       9.4         29.42       
C           67.64       7.32        41.59       
C           68.72       7.42        40.8        
S           66.15       7.75        40.8        
H           69.17       8.07        38.73       
H           69.75       7.16        41.1        
C           68.35       7.77        39.47       
C           67.03       8.03        39.25       
C           65.67       5.27        52.23       
N           66.87       5.85        51.91       
C           64.66       5.21        51.32       
C           67.06       6.26        50.65       
C           66.07       6.25        49.61       
C           66.79       6.72        48.39       
C           68.27       6.84        48.8        
N           68.34       6.62        50.18       
C           66.43       6.86        47.03       
C           64.93       6.86        46.63       
N           64.89       6.9         45.27       
C           66.21       7.05        44.81       
C           68.44       6.88        45.21       
C           67.23       6.94        45.79       
C           64.82       5.76        50.06       
O           63.9        6.61        47.25       
O           69.27       7.15        48.14       
C           63.65       6.92        44.5        
C           69.52       6.87        50.95       
H           69.15       7.24        51.9        
H           70.08305    5.96046     51.15934    
H           70.12       7.66        50.44       
H           63.0        6.11        44.77       
H           63.11155    7.86593     44.55821    
H           63.93       6.68        43.47       
H           69.67       7.02        43.43       
H           69.26       6.66        45.88       
H           63.99       5.8         49.35       
H           63.66       4.78        51.44       
C           68.7        7.04        43.81       
N           66.32       7.18        43.53       
C           67.59       7.17        43.01       
C           65.83       4.94        56.08       
C           64.56       4.73        55.74       
S           66.84       5.31        54.66       
H           63.38       4.71        53.94       
H           63.82       4.43        56.49       
C           64.37       4.79        54.36       
C           65.46       5.05        53.63       
C           70.35       4.38        66.3        
N           71.12       4.41        65.19       
C           69.03       4.64        66.28       
C           70.51       4.52        64.04       
C           69.09       4.7         63.81       
C           68.9        4.71        62.3        
C           70.36       4.48        61.75       
N           71.21       4.49        62.82       
C           67.86       4.97        61.38       
C           66.42       5.18        61.89       
N           65.57       5.25        60.78       
C           66.34       5.16        59.68       
C           68.4        4.64        58.8        
C           67.69       4.89        59.92       
C           68.41       4.83        65.01       
O           66.01       5.44        62.98       
O           70.87       4.6         60.64       
C           64.16       5.7         60.83       
C           72.65       4.68        62.68       
H           73.0        4.38        61.73       
H           72.9825     5.66335     63.0125     
H           73.08       3.98        63.35       
H           63.84       5.43        61.84       
H           64.13126    6.7635      60.59287    
H           63.51       5.25        60.12       
H           68.49       4.7         56.69       
H           69.47       4.41        58.88       
H           67.34       5.03        64.98       
H           68.53       4.81        67.27       
C           67.85       4.77        57.57       
N           65.78       5.11        58.53       
C           66.49       5.01        57.39       
C           72.9        4.63        69.25       
C           71.63       4.38        69.78       
S           72.76       4.8         67.49       
H           69.55       4.05        68.91       
H           71.4        4.41        70.83       
C           70.65       4.13        68.79       
C           71.11       4.22        67.54       
C           82.45       6.26        74.79       
N           82.47       6.39        73.43       
C           81.26       6.06        75.57       
C           81.27       6.35        72.84       
C           80.0        6.03        73.48       
C           79.07       5.94        72.34       
C           79.86       6.28        71.09       
N           81.18       6.59        71.48       
C           77.72       5.66        72.24       
C           76.89       5.34        73.49       
N           75.51       5.19        73.15       
C           75.4        5.24        71.76       
C           76.52       5.77        69.76       
C           76.66       5.65        71.17       
C           80.08       5.93        74.9        
O           77.28       5.15        74.62       
O           79.51       6.29        69.96       
C           74.44       4.89        74.09       
C           82.18       6.92        70.47       
H           81.86       6.57        69.47       
H           82.34768    7.99592     70.42109    
H           83.0        6.34        70.51       
H           73.9        4.0         73.86       
H           73.81754    5.77609     74.21449    
H           74.93       4.75        75.1        
H           75.2        5.67        68.07       
H           77.4        5.92        69.24       
H           79.24       5.76        75.51       
H           81.26       5.95        76.64       
C           75.29       5.53        69.15       
N           74.24       5.03        71.2        
C           74.21       5.07        69.83       
C           86.22       6.82        75.52       
C           85.62       6.57        76.76       
S           85.04       6.85        74.23       
H           83.47       6.37        77.43       
H           86.09       6.41        77.67       
C           84.2        6.4         76.59       
C           83.78       6.39        75.31       
C           96.89       8.17        73.48       
N           96.07       8.72        72.57       
C           96.5        7.57        74.66       
C           94.78       8.38        72.79       
C           94.25       7.81        73.96       
C           92.79       7.79        73.82       
C           92.58       8.54        72.5        
N           93.78       8.71        71.9        
C           91.75       7.3         74.63       
C           91.97       6.48        75.88       
N           90.72       6.07        76.37       
C           89.72       6.72        75.63       
C           89.32       8.03        73.7        
C           90.25       7.41        74.51       
C           95.21       7.43        74.91       
O           92.97       6.08        76.39       
O           91.52       8.91        71.97       
C           90.57       4.76        77.01       
C           93.96       8.63        70.42       
H           94.84       9.18        70.1        
H           93.91049    7.61852     70.01682    
H           93.15       9.16        70.03       
H           91.48       4.19        76.97       
H           90.24514    4.88994     78.04232    
H           89.91       4.21        76.36       
H           87.11       8.32        73.35       
H           89.59       8.72        72.93       
H           94.98       7.07        75.85       
H           97.23       7.21        75.3        
C           87.91       7.84        74.01       
N           88.47       6.57        75.93       
C           87.56       7.09        75.08       
C           100.76      7.99        72.91       
C           100.26      9.06        72.2        
S           99.46       7.28        73.77       
H           98.4        10.17       71.8        
H           100.94      9.78        71.74       
C           98.88       9.34        72.32       
C           98.3        8.34        73.08       
C           110.79      3.42        74.32       
N           110.72      4.72        74.13       
C           109.76      2.59        74.07       
C           109.48      5.26        73.96       
C           108.29      4.52        73.81       
C           107.19      5.52        73.63       
C           107.96      6.8         73.6        
N           109.28      6.61        73.85       
C           105.76      5.41        73.66       
C           104.98      4.17        74.19       
N           103.65      4.47        74.27       
C           103.39      5.76        73.78       
C           104.45      7.75        72.99       
C           104.6       6.41        73.44       
C           108.46      3.19        73.89       
O           105.42      3.07        74.49       
O           107.44      7.91        73.62       
C           102.58      3.53        74.62       
C           110.33      7.63        73.86       
H           110.03      8.34        73.2        
H           110.45344   8.08948     74.84068    
H           111.17      7.16        73.44       
H           102.14      3.15        73.67       
H           101.83617   3.9193      75.31517    
H           103.05      2.68        75.09       
H           103.09      9.26        72.34       
H           105.32      8.33        72.62       
H           107.63      2.53        73.68       
H           109.81      1.54        74.19       
C           103.19      8.3         72.93       
N           102.16      6.27        73.66       
C           102.12      7.56        73.24       
C           114.57      2.96        75.24       
C           114.07      1.7         75.24       
S           113.34      4.15        74.99       
H           112.07      0.83        75.01       
H           114.64      0.8         75.45       
C           112.69      1.74        75.03       
C           112.19      2.95        74.65       
C           124.15      8.44        76.48       
N           124.12      7.04        76.34       
C           122.95      9.12        76.16       
C           123.05      6.35        75.93       
C           121.81      6.98        75.69       
C           120.79      5.93        75.38       
C           121.67      4.68        75.32       
N           122.98      4.99        75.64       
C           119.38      5.91        75.2        
C           118.5       7.12        74.93       
N           117.19      6.78        74.8        
C           117.13      5.4         75.02       
C           118.34      3.41        75.55       
C           118.39      4.78        75.18       
C           121.81      8.39        75.8        
O           118.77      8.3         74.74       
O           121.39      3.56        75.0        
C           116.07      7.66        74.74       
C           123.97      4.0         76.06       
H           124.92      4.54        76.07       
H           123.85921   3.6261      77.07785    
H           124.06      3.25        75.28       
H           115.24      7.25        75.31       
H           115.75234   7.92118     73.73056    
H           116.48      8.5         75.15       
H           117.2       1.7         76.04       
H           119.2       3.0         76.01       
H           120.94      8.98        75.57       
H           122.94      10.2        76.19       
C           117.15      2.71        75.64       
N           115.99      4.71        75.05       
C           115.94      3.42        75.33       
C           127.94      9.07        77.09       
C           127.33      10.28       77.23       
S           126.81      7.77        76.86       
H           125.3       11.03       77.12       
H           127.87      11.18       77.52       
C           125.95      10.16       77.04       
C           125.48      8.94        76.84       
C           138.29      5.81        77.52       
N           137.43      4.93        77.89       
C           138.02      7.12        77.24       
C           136.18      5.41        78.05       
C           135.78      6.79        77.99       
C           134.31      6.81        78.02       
C           133.92      5.4         78.38       
N           135.09      4.68        78.41       
C           133.34      7.82        77.91       
C           133.67      9.32        77.72       
N           132.49      10.0        77.64       
C           131.45      9.15        77.59       
C           130.84      6.87        77.63       
C           131.86      7.8         77.71       
C           136.84      7.64        77.64       
O           134.7       9.89        77.64       
O           132.88      4.92        78.65       
C           132.5       11.39       77.97       
C           135.09      3.23        78.52       
H           136.01      2.9         78.95       
H           134.68465   2.66391     77.68135    
H           134.45      3.03        79.36       
H           133.49      11.63       78.54       
H           132.61381   12.10133    77.15198    
H           131.73      11.6        78.71       
H           128.77      6.61        77.72       
H           130.98      5.83        77.66       
H           136.67      8.69        77.42       
H           138.75      7.82        76.76       
C           129.57      7.28        77.5        
N           130.21      9.57        77.3        
C           129.3       8.58        77.2        
C           141.26      3.29        77.55       
C           141.8       4.46        77.2        
S           139.51      3.4         77.63       
H           141.08      6.48        76.81       
H           142.86      4.58        76.99       
C           140.84      5.44        76.97       
C           139.56      5.09        77.28       
C           144.78      -7.26       79.13       
N           145.44      -6.37       78.33       
C           143.64      -6.79       79.81       
C           144.96      -5.15       78.13       
C           143.85      -4.57       78.85       
C           143.71      -3.1        78.41       
C           144.97      -2.95       77.55       
N           145.57      -4.18       77.41       
C           142.83      -2.09       78.68       
C           141.59      -2.27       79.61       
N           140.88      -1.06       79.59       
C           141.53      -0.11       78.77       
C           143.49      0.26        77.45       
C           142.76      -0.66       78.25       
C           143.19      -5.51       79.66       
O           141.21      -3.25       80.25       
O           145.39      -1.95       77.0        
C           139.65      -0.8        80.23       
C           146.92      -4.33       76.98       
H           147.36      -5.31       77.35       
H           147.05751   -4.25039    75.90164    
H           147.47      -3.51       77.56       
H           138.93      -0.33       79.53       
H           139.74011   -0.20386    81.13807    
H           139.22      -1.77       80.45       
H           143.59      2.3         76.75       
H           144.44      0.01        76.94       
H           142.38      -5.35       80.31       
H           143.09      -7.43       80.45       
C           143.0       1.6         77.26       
N           141.1       1.14        78.51       
C           141.86      2.02        77.79       
C           146.88      -10.47      79.12       
C           145.73      -10.74      79.83       
S           146.95      -8.81       78.62       
H           143.97      -9.65       80.42       
H           145.46      -11.7       80.26       
C           144.91      -9.65       79.89       
C           145.36      -8.54       79.23       
H           58.85       6.64        14.2        
H           147.64      -11.2       78.93       
