392

C           58.29       7.08        28.7        
N           58.65       8.12        27.97       
C           57.82       5.96        28.02       
C           58.46       8.06        26.65       
C           58.04       6.89        25.91       
C           58.0        7.31        24.48       
C           58.43       8.79        24.52       
N           58.71       9.16        25.8        
C           57.71       6.62        23.29       
C           57.45       5.13        23.24       
N           57.17       4.72        21.92       
C           57.36       5.78        21.06       
C           57.57       8.09        21.1        
C           57.6        6.93        21.84       
C           57.68       5.81        26.64       
O           57.42       4.25        24.09       
O           58.35       9.67        23.65       
C           56.67       3.39        21.58       
C           59.13       10.49       26.24       
H           58.93       10.7        27.3        
H           60.21942    10.51848    26.21864    
H           58.63       11.2        25.66       
H           57.28       3.08        20.66       
H           55.59393    3.33733     21.41445    
H           56.88       2.85        22.43       
H           57.87       8.98        19.18       
H           57.53       9.0         21.67       
H           57.19       4.94        26.32       
H           57.63       5.08        28.69       
C           57.6        8.1         19.72       
N           57.18       5.74        19.78       
C           57.35       6.86        19.08       
C           59.62       7.43        32.34       
C           58.93       6.22        32.17       
S           59.79       8.28        30.8        
H           57.68       5.25        30.6        
H           58.97       5.42        32.96       
C           58.32       6.08        30.93       
C           58.58       7.12        30.09       
C           67.21       7.03        40.52       
N           67.33       7.99        39.59       
C           66.01       6.26        40.5        
C           66.48       8.14        38.64       
C           65.26       7.42        38.56       
C           64.43       7.81        37.34       
C           65.26       8.91        36.8        
N           66.5        8.95        37.53       
C           63.22       7.48        36.79       
C           62.26       6.57        37.52       
N           61.22       6.26        36.68       
C           61.3        7.06        35.5        
C           62.6        8.58        34.4        
C           62.47       7.8         35.57       
C           65.14       6.39        39.47       
O           62.32       6.05        38.56       
O           65.03       9.62        35.81       
C           60.17       5.43        36.91       
C           67.73       9.7         37.16       
H           68.0        9.45        36.16       
H           67.695      10.74291    37.47497    
H           68.52       9.27        37.84       
H           59.9        4.97        35.97       
H           59.27427    5.9501      37.24951    
H           60.47       4.62        37.56       
H           61.81       9.2         32.48       
H           63.35       9.25        34.34       
H           64.36       5.65        39.4        
H           65.88       5.38        41.08       
C           61.64       8.51        33.37       
N           60.47       6.88        34.43       
C           60.54       7.73        33.43       
C           69.61       6.04        43.46       
C           70.26       7.08        42.78       
S           68.14       5.59        42.65       
H           69.82       8.08        40.86       
H           71.14       7.56        43.08       
C           69.47       7.45        41.66       
C           68.24       6.88        41.53       
C           70.24       -0.6        52.17       
N           70.92       0.55        52.19       
C           69.73       -1.1        51.0        
C           71.05       1.16        51.04       
C           70.5        0.83        49.72       
C           70.69       2.04        48.83       
C           71.61       2.95        49.66       
N           71.81       2.34        50.91       
C           70.34       2.42        47.56       
C           69.64       1.39        46.71       
N           69.35       2.0         45.51       
C           69.81       3.3         45.5        
C           70.68       5.02        46.88       
C           70.33       3.66        46.75       
C           69.8        -0.38       49.77       
O           69.53       0.18        46.8        
O           72.11       4.01        49.32       
C           68.82       1.26        44.39       
C           72.47       3.1         52.0        
H           72.1        2.74        52.97       
H           73.56       3.1         52.0        
H           72.07       4.1         51.98       
H           69.52       0.46        44.24       
H           67.7886     0.90918     44.42508    
H           68.93       1.98        43.59       
H           70.92       6.87        45.78       
H           71.05       5.47        47.81       
H           69.09       -0.61       48.99       
H           69.16       -2.02       51.06       
C           70.57       5.83        45.73       
N           69.56       4.01        44.49       
C           69.99       5.3         44.57       
C           69.37       -1.36       55.95       
C           69.21       -2.47       55.21       
S           69.93       -0.12       54.92       
H           69.31       -3.15       53.12       
H           68.82       -3.39       55.66       
C           69.47       -2.34       53.8        
C           69.87       -1.08       53.51       
C           65.47       1.22        66.01       
N           66.76       1.26        65.62       
C           64.57       0.58        65.12       
C           67.11       0.84        64.45       
C           66.37       0.17        63.46       
C           67.19       -0.11       62.31       
C           68.55       0.34        62.86       
N           68.4        0.86        64.08       
C           67.08       -0.69       61.1        
C           65.92       -1.66       60.7        
N           66.12       -2.03       59.42       
C           67.22       -1.47       58.84       
C           69.14       -0.22       59.42       
C           67.91       -0.73       59.87       
C           65.01       0.08        63.91       
O           64.92       -2.01       61.34       
O           69.65       0.3         62.31       
C           65.02       -2.74       58.79       
C           69.51       1.12        64.93       
H           70.29       0.32        64.76       
H           70.00685    2.0705      64.73558    
H           69.22       1.11        66.02       
H           64.42       -2.0        58.24       
H           65.37766    -3.57453    58.18689    
H           64.35       -3.14       59.64       
H           70.46       0.26        57.8        
H           69.75       0.33        60.13       
H           64.23       -0.32       63.32       
H           63.5        0.56        65.42       
C           69.51       -0.25       58.08       
N           67.67       -1.73       57.62       
C           68.82       -1.12       57.27       
C           65.58       2.45        69.68       
C           64.33       2.21        69.38       
S           66.54       2.36        68.24       
H           63.13       1.41        67.66       
H           63.46       2.2         70.06       
C           64.1        1.79        68.04       
C           65.2        1.82        67.29       
C           71.07       2.38        79.18       
N           71.53       3.3         78.23       
C           69.85       1.85        79.06       
C           70.66       3.63        77.28       
C           69.43       3.03        76.91       
C           68.92       3.42        75.6        
C           69.95       4.45        75.21       
N           70.95       4.51        76.2        
C           67.84       3.16        74.81       
C           66.62       2.46        75.36       
N           65.73       2.12        74.36       
C           66.25       2.72        73.13       
C           68.17       3.68        72.18       
C           67.51       3.29        73.36       
C           68.97       2.14        77.94       
O           66.4        2.1         76.49       
O           70.0        5.05        74.11       
C           64.55       1.27        74.51       
C           72.2        5.05        75.85       
H           72.51       4.77        74.84       
H           72.2283     6.13961     75.84292    
H           73.0        4.65        76.56       
H           64.66       0.38        73.85       
H           63.60114    1.76903     74.3132     
H           64.55       0.71        75.4        
H           68.07       3.55        70.04       
H           69.15       4.08        72.14       
H           68.06       1.6         77.86       
H           69.49       1.07        79.75       
C           67.54       3.3         70.97       
N           65.57       2.52        72.01       
C           66.26       2.74        70.91       
C           73.97       1.54        81.61       
C           73.0        0.57        81.73       
S           73.55       2.64        80.36       
H           71.1        0.05        80.78       
H           72.95       -0.22       82.43       
C           71.94       0.73        80.8        
C           72.06       1.87        80.08       
C           83.84       2.22        86.26       
N           83.31       3.34        85.65       
C           83.05       1.15        86.61       
C           82.13       3.18        85.16       
C           81.28       2.08        85.24       
C           79.98       2.51        84.66       
C           80.24       3.87        84.06       
N           81.58       4.1         84.35       
C           78.74       1.9         84.58       
C           78.25       0.8         85.55       
N           76.95       0.5         85.22       
C           76.53       1.28        84.13       
C           77.26       2.95        82.62       
C           77.56       2.17        83.73       
C           81.77       1.04        86.06       
O           78.78       0.23        86.48       
O           79.58       4.68        83.53       
C           76.06       -0.38       85.96       
C           82.01       5.51        84.28       
H           82.36       5.8         85.32       
H           82.77398    5.65415     83.51602    
H           81.13       6.16        84.15       
H           75.04       -0.21       85.76       
H           76.31833    -1.43483    85.86672    
H           76.2        -0.0        87.05       
H           75.97       3.35        81.03       
H           78.06       3.53        82.09       
H           81.2        0.15        86.31       
H           83.45       0.26        87.1        
C           76.09       2.71        81.88       
N           75.34       1.12        83.53       
C           75.16       1.8         82.38       
C           87.36       2.3         87.97       
C           87.27       3.43        87.26       
S           85.9        1.36        87.9        
H           85.73       4.47        86.14       
H           88.05       4.17        87.17       
C           86.03       3.55        86.63       
C           85.19       2.5         86.81       
C           96.52       -0.67       93.66       
N           96.1        0.59        93.7        
C           95.77       -1.71       93.26       
C           94.89       0.77        93.2        
C           94.03       -0.16       92.65       
C           92.94       0.66        91.94       
C           93.31       2.12        92.19       
N           94.42       2.08        93.02       
C           91.74       0.36        91.17       
C           91.19       -1.08       90.93       
N           89.98       -0.95       90.27       
C           89.63       0.36        89.97       
C           90.46       2.61        90.15       
C           90.69       1.24        90.51       
C           94.48       -1.45       92.8        
O           91.57       -2.16       91.38       
O           92.89       3.21        91.68       
C           89.23       -2.09       89.77       
C           95.13       3.21        93.49       
H           94.69       4.11        92.99       
H           95.0017     3.45235     94.54494    
H           96.2        3.11        93.28       
H           88.84       -1.92       88.74       
H           88.35854    -2.44682    90.31895    
H           89.87       -2.98       89.88       
H           89.2        3.96        89.14       
H           91.08       3.44        90.36       
H           93.9        -2.23       92.38       
H           96.24       -2.69       93.26       
C           89.3        2.93        89.43       
N           88.54       0.69        89.27       
C           88.41       1.95        88.93       
C           100.18      -0.49       95.18       
C           99.84       -1.82       95.12       
S           98.81       0.48        94.82       
H           98.09       -2.97       94.28       
H           100.54      -2.62       95.34       
C           98.49       -1.97       94.57       
C           97.88       -0.83       94.26       
C           109.86      4.3         97.99       
N           109.81      3.2         97.24       
C           108.7       4.83        98.49       
C           108.59      2.72        96.9        
C           107.36      3.15        97.37       
C           106.27      2.3         96.7        
C           107.1       1.2         96.03       
N           108.43      1.58        96.14       
C           104.89      2.38        96.58       
C           104.09      3.64        96.7        
N           102.77      3.37        96.42       
C           102.59      2.02        96.2        
C           103.82      0.04        95.87       
C           103.88      1.36        96.19       
C           107.44      4.3         98.22       
O           104.55      4.72        97.09       
O           106.77      0.25        95.45       
C           101.94      4.29        95.71       
C           109.56      0.98        95.51       
H           109.46      -0.13       95.38       
H           109.71804   1.35793     94.4999     
H           110.47      1.14        96.16       
H           100.86      4.13        95.78       
H           102.13994   4.31856     94.63888    
H           102.21      5.21        96.06       
H           102.53      -1.59       95.56       
H           104.67      -0.62       95.81       
H           106.51      4.72        98.46       
H           108.85      5.75        99.07       
C           102.54      -0.5        95.82       
N           101.41      1.53        95.88       
C           101.39      0.2         95.66       
C           113.58      5.32        98.25       
C           112.87      6.16        99.0        
S           112.57      4.09        97.47       
H           110.76      6.33        99.53       
H           113.35      6.86        99.75       
C           111.52      5.83        99.01       
C           111.2       4.77        98.22       
C           124.72      4.35        98.81       
N           124.03      3.25        98.39       
C           123.99      5.48        99.11       
C           122.69      3.26        98.39       
C           121.91      4.32        98.83       
C           120.46      3.87        98.69       
C           120.61      2.59        97.87       
N           121.89      2.28        97.89       
C           119.26      4.61        98.94       
C           119.1       5.8         99.91       
N           117.81      6.36        99.91       
C           117.04      5.52        99.15       
C           117.02      3.74        97.72       
C           117.84      4.5         98.52       
C           122.6       5.49        99.15       
O           120.0       6.29        100.5       
O           119.66      1.83        97.64       
C           117.46      7.61        100.54      
C           122.47      1.06        97.36       
H           123.48      0.88        97.78       
H           122.53972   1.03909     96.27243    
H           121.87      0.23        97.75       
H           118.01      7.73        101.51      
H           117.37908   8.44866     99.84848    
H           116.43      7.59        100.88      
H           115.15      3.34        96.94       
H           117.36      2.88        97.23       
H           122.08      6.43        99.3        
H           124.46      6.47        99.31       
C           115.67      4.0         97.61       
N           115.77      5.82        99.07       
C           115.01      5.06        98.23       
C           128.36      3.87        97.68       
C           128.28      5.13        98.23       
S           126.87      3.0         97.84       
H           126.84      6.33        99.28       
H           129.06      5.87        98.19       
C           127.07      5.4         98.83       
C           126.15      4.39        98.61       
C           137.45      2.25        91.79       
N           136.65      1.23        91.92       
C           137.24      3.46        92.42       
C           135.57      1.41        92.67       
C           135.18      2.61        93.34       
C           133.9       2.28        94.01       
C           133.48      0.96        93.39       
N           134.63      0.4         92.76       
C           132.97      3.02        94.74       
C           133.46      4.28        95.39       
N           132.56      4.72        96.28       
C           131.42      3.99        96.08       
C           130.55      2.02        95.24       
C           131.6       2.88        95.28       
C           136.12      3.64        93.27       
O           134.55      4.81        95.29       
O           132.45      0.34        93.59       
C           132.56      6.04        96.93       
C           134.67      -1.06       92.52       
H           134.5       -1.65       93.38       
H           134.17837   -1.37605    91.59994    
H           135.77      -1.2        92.43       
H           132.06      6.0         97.87       
H           132.19334   6.82972     96.27425    
H           133.6       6.36        97.07       
H           128.55      1.63        95.96       
H           130.62      1.09        94.74       
H           136.03      4.59        93.79       
H           137.83      4.33        92.26       
C           129.44      2.29        96.01       
N           130.4       4.36        96.74       
C           129.37      3.5         96.72       
C           140.32      0.95        89.37       
C           140.68      2.18        89.78       
S           138.78      0.49        90.12       
H           139.91      3.77        91.08       
H           141.58      2.7         89.56       
C           139.79      2.71        90.67       
C           138.67      1.96        91.02       
H           57.31       6.79        18.02       
H           140.63      0.54        88.44       
