392

C           118.21      12.87       39.31       
N           117.43      11.79       39.07       
C           119.33      12.86       40.11       
C           117.83      10.64       39.59       
C           119.02      10.42       40.36       
C           119.09      8.92        40.62       
C           117.75      8.39        40.02       
N           117.15      9.44        39.44       
C           119.96      8.1         41.29       
C           121.4       8.58        41.59       
N           121.95      7.65        42.47       
C           120.95      6.77        42.85       
C           118.6       6.33        42.77       
C           119.73      7.01        42.24       
C           119.74      11.58       40.62       
O           121.94      9.42        40.99       
O           117.35      7.2         39.97       
C           123.25      7.81        43.08       
C           116.01      9.28        38.55       
H           115.3       10.08       38.69       
H           116.32952   9.25916     37.50809    
H           115.53      8.34        38.82       
H           123.72      6.82        43.31       
H           123.19457   8.37821     44.00853    
H           123.89      8.37        42.29       
H           118.09      4.96        44.32       
H           117.58      6.61        42.49       
H           120.57      11.54       41.32       
H           119.95      13.75       40.34       
C           118.88      5.51        43.83       
N           121.26      5.88        43.72       
C           120.13      5.31        44.34       
C           116.5       15.91       37.42       
C           117.69      16.33       37.89       
S           116.19      14.27       37.83       
H           119.3       15.42       39.12       
H           118.02      17.37       37.88       
C           118.4       15.23       38.52       
C           117.76      14.02       38.58       
C           107.99      21.82       33.01       
N           108.82      22.31       33.95       
C           108.33      20.55       32.49       
C           109.85      21.62       34.35       
C           110.28      20.31       33.97       
C           111.41      19.88       34.81       
C           111.8       21.13       35.58       
N           110.76      22.04       35.32       
C           112.08      18.74       35.01       
C           111.51      17.39       34.57       
N           112.37      16.35       35.01       
C           113.41      16.93       35.69       
C           114.54      18.98       36.27       
C           113.39      18.37       35.61       
C           109.52      19.82       32.9        
O           110.47      17.07       34.09       
O           112.61      21.26       36.48       
C           112.11      14.89       34.92       
C           110.78      23.4        35.79       
H           110.48      24.13       35.05       
H           110.25745   23.49306    36.74204    
H           111.79      23.64       36.05       
H           112.51      14.3        35.69       
H           112.51053   14.4749     33.99514    
H           111.04      14.79       35.03       
H           116.21      18.58       37.37       
H           114.63      20.01       36.35       
H           109.73      18.91       32.38       
H           107.65      20.06       31.78       
C           115.45      18.12       36.75       
N           114.38      16.16       36.15       
C           115.45      16.72       36.74       
C           105.05      24.27       32.69       
C           104.97      23.34       31.63       
S           106.38      23.98       33.73       
H           106.23      21.65       30.87       
H           104.1       23.37       30.91       
C           106.08      22.51       31.58       
C           106.9       22.7        32.63       
C           96.54       31.32       33.16       
N           97.54       31.61       33.98       
C           96.6        30.25       32.27       
C           98.66       30.9        33.85       
C           98.93       29.92       32.86       
C           100.29      29.35       33.12       
C           100.76      30.15       34.28       
N           99.78       31.1        34.6        
C           101.06      28.36       32.46       
C           100.76      27.74       31.11       
N           101.68      26.79       30.85       
C           102.54      26.59       31.87       
C           103.0       27.18       34.04       
C           102.22      27.48       32.93       
C           97.81       29.57       32.06       
O           99.93       28.16       30.31       
O           101.87      30.22       34.78       
C           101.83      26.17       29.61       
C           99.73       31.76       35.9        
H           99.56       31.01       36.69       
H           100.47922   32.52363    36.10892    
H           98.75       32.23       36.01       
H           102.83      25.74       29.44       
H           101.13249   25.36463    29.37989    
H           101.83      26.92       28.8        
H           104.64      26.07       34.95       
H           102.89      27.82       34.89       
H           97.8        28.75       31.38       
H           95.78       30.01       31.57       
C           104.03      26.23       34.05       
N           103.36      25.59       31.81       
C           104.13      25.42       32.94       
C           94.01       34.09       34.14       
C           93.57       33.54       32.95       
S           95.36       33.18       34.83       
H           94.18       31.98       31.54       
H           92.71       33.95       32.48       
C           94.37       32.47       32.49       
C           95.4        32.22       33.34       
C           90.51       43.9        37.86       
N           91.44       43.26       38.63       
C           89.86       43.27       36.82       
C           91.72       42.04       38.27       
C           91.06       41.21       37.3        
C           91.93       39.95       37.21       
C           93.01       40.1        38.32       
N           92.85       41.4        38.81       
C           91.85       38.88       36.35       
C           90.7        38.7        35.39       
N           90.89       37.53       34.64       
C           92.14       36.98       34.98       
C           93.83       37.03       36.58       
C           92.7        37.68       36.08       
C           90.11       41.9        36.51       
O           89.74       39.44       35.1        
O           94.1        39.45       38.49       
C           89.8        36.95       33.89       
C           93.77       41.95       39.79       
H           94.38       41.12       40.32       
H           94.5539     42.60445    39.40884    
H           93.12       42.31       40.57       
H           88.9        37.17       34.49       
H           89.771      37.32702    32.86769    
H           89.84       35.86       33.94       
H           95.22       35.45       36.3        
H           94.44       37.56       37.29       
H           89.88       41.62       35.56       
H           89.18       43.73       36.1        
C           94.23       35.83       36.0        
N           92.44       35.86       34.44       
C           93.5        35.19       34.95       
C           90.4        47.39       39.6        
C           89.95       47.6        38.36       
S           90.95       45.76       39.79       
H           89.63       46.27       36.46       
H           89.49       48.53       37.97       
C           89.94       46.39       37.52       
C           90.41       45.29       38.19       
C           91.87       54.78       47.66       
N           92.06       53.42       47.82       
C           91.5        55.32       46.43       
C           91.98       52.65       46.75       
C           91.79       53.07       45.41       
C           91.77       51.83       44.62       
C           92.32       50.77       45.6        
N           92.25       51.34       46.89       
C           91.55       51.53       43.29       
C           91.45       52.59       42.13       
N           91.17       51.99       40.93       
C           91.17       50.64       41.09       
C           91.33       48.94       42.9        
C           91.35       50.29       42.49       
C           91.44       54.42       45.31       
O           91.5        53.84       42.27       
O           92.81       49.72       45.39       
C           91.04       52.63       39.64       
C           92.54       50.7        48.13       
H           92.02       51.22       48.93       
H           92.22549    49.65639    48.13715    
H           93.52       50.88       48.31       
H           90.15       52.2        39.12       
H           91.9354     52.49225    39.03388    
H           91.01       53.7        39.76       
H           91.19       47.0        42.06       
H           91.55       48.51       43.86       
H           90.97       54.75       44.43       
H           91.22       56.39       46.31       
C           91.1        48.06       41.88       
N           90.85       49.68       40.11       
C           90.82       48.42       40.53       
C           93.34       56.4        50.93       
C           92.59       57.35       50.28       
S           93.3        54.89       50.12       
H           91.44       57.48       48.36       
H           92.43       58.34       50.64       
C           91.97       56.89       49.02       
C           92.32       55.57       48.81       
C           97.51       58.01       60.98       
N           98.09       57.05       60.31       
C           96.51       58.86       60.49       
C           97.61       56.88       59.11       
C           96.62       57.66       58.44       
C           96.49       57.11       57.04       
C           97.44       55.94       57.0        
N           98.08       55.9        58.22       
C           95.66       57.47       55.99       
C           95.12       58.87       55.88       
N           94.32       58.94       54.78       
C           94.28       57.71       54.11       
C           95.51       55.7        53.92       
C           95.21       56.83       54.68       
C           96.09       58.72       59.19       
O           95.26       59.85       56.64       
O           97.8        55.32       56.0        
C           93.57       60.11       54.31       
C           99.28       55.11       58.44       
H           100.04      55.45       59.11       
H           98.97885    54.11841    58.77787    
H           99.78       55.12       57.54       
H           93.52       60.13       53.19       
H           92.5662     60.16905    54.73071    
H           94.18       61.04       54.6        
H           95.02       54.64       52.16       
H           96.09       54.96       54.36       
H           95.35       59.42       58.84       
H           96.0        59.56       61.18       
C           94.87       55.51       52.74       
N           93.64       57.52       52.96       
C           93.97       56.47       52.25       
C           98.37       57.13       64.69       
C           97.72       58.31       64.7        
S           98.69       56.58       63.05       
H           96.88       59.78       63.17       
H           97.42       58.84       65.61       
C           97.47       58.84       63.36       
C           97.96       58.04       62.39       
C           100.09      49.69       72.91       
N           100.13      49.32       71.59       
C           99.64       50.97       73.26       
C           99.72       50.25       70.66       
C           99.36       51.59       70.86       
C           99.15       52.27       69.56       
C           99.45       51.13       68.56       
N           99.89       50.06       69.29       
C           98.85       53.54       69.05       
C           97.99       54.46       69.97       
N           97.77       55.63       69.24       
C           98.27       55.57       67.94       
C           99.38       54.04       66.49       
C           98.92       54.3        67.78       
C           99.36       51.92       72.25       
O           97.56       54.28       71.11       
O           99.4        51.19       67.34       
C           97.12       56.77       69.84       
C           100.3       48.82       68.58       
H           101.14      48.37       69.06       
H           99.50908    48.09321    68.39474    
H           100.71      49.1        67.65       
H           96.23       57.05       69.3        
H           97.8107     57.58052    70.07258    
H           96.71       56.39       70.8        
H           99.65       54.81       64.52       
H           99.99       53.18       66.26       
H           99.26       52.94       72.48       
H           99.57       51.26       74.3        
C           99.22       54.92       65.51       
N           98.08       56.51       66.98       
C           98.64       56.14       65.77       
C           101.36      46.5        74.62       
C           100.65      47.21       75.51       
S           101.33      47.32       73.08       
H           99.47       49.09       75.7        
H           100.43      46.95       76.54       
C           100.01      48.45       75.05       
C           100.37      48.62       73.76       
C           107.13      37.07       74.73       
N           106.14      37.22       75.7        
C           107.38      38.02       73.76       
C           105.49      38.37       75.6        
C           105.72      39.44       74.73       
C           104.81      40.54       75.08       
C           104.06      40.03       76.29       
N           104.54      38.71       76.57       
C           104.49      41.76       74.46       
C           105.09      42.3        73.13       
N           104.5       43.54       72.9        
C           103.64      43.9        73.92       
C           102.93      43.33       76.0        
C           103.66      42.93       74.93       
C           106.62      39.17       73.72       
O           105.8       41.78       72.25       
O           103.08      40.53       76.82       
C           104.76      44.38       71.77       
C           103.94      37.83       77.58       
H           103.98      36.73       77.23       
H           104.3475    37.96814    78.58148    
H           102.86      38.11       77.66       
H           104.84      45.43       72.13       
H           104.09404   44.32933    70.90859    
H           105.74      44.13       71.42       
H           101.64      44.86       76.77       
H           102.84      42.72       76.85       
H           106.94      39.93       73.04       
H           108.1       37.85       73.0        
C           102.24      44.55       75.93       
N           103.05      45.08       73.81       
C           102.25      45.34       74.81       
C           109.3       33.77       74.84       
C           108.32      33.77       75.79       
S           109.07      35.22       73.89       
H           106.61      34.94       76.48       
H           108.28      32.99       76.56       
C           107.44      34.91       75.84       
C           107.69      35.7        74.8        
C           116.64      26.57       71.05       
N           116.36      26.61       72.38       
C           116.1       27.67       70.21       
C           115.66      27.62       72.87       
C           115.17      28.76       72.18       
C           114.37      29.53       73.08       
C           114.55      28.85       74.45       
N           115.33      27.73       74.21       
C           113.53      30.66       72.88       
C           113.55      31.7        71.68       
N           112.61      32.75       71.93       
C           112.07      32.52       73.14       
C           111.83      31.0        74.97       
C           112.5       31.29       73.78       
C           115.45      28.81       70.81       
O           114.08      31.57       70.65       
O           114.14      29.07       75.57       
C           112.18      33.81       71.02       
C           116.03      27.01       75.24       
H           117.04      26.88       74.94       
H           115.47696   26.14405    75.60384    
H           116.12      27.59       76.11       
H           111.12      33.84       71.06       
H           112.59448   34.77485    71.31217    
H           112.46      33.51       69.97       
H           110.24      31.68       76.27       
H           111.95      30.13       75.64       
H           114.95      29.51       70.15       
H           116.24      27.68       69.11       
C           110.84      31.93       75.39       
N           111.13      33.35       73.5        
C           110.46      32.99       74.59       
C           118.45      23.86       69.04       
C           118.13      23.29       70.19       
S           117.86      25.45       68.85       
H           116.97      23.92       72.0        
H           118.45      22.24       70.47       
C           117.43      24.17       71.07       
C           117.27      25.39       70.47       
C           123.65      18.9        60.43       
N           123.76      18.42       61.7        
C           122.9       20.04       60.19       
C           123.16      19.06       62.69       
C           122.38      20.25       62.55       
C           121.85      20.61       63.92       
C           122.38      19.48       64.78       
N           123.27      18.74       64.02       
C           121.1       21.7        64.46       
C           120.59      22.85       63.64       
N           120.0       23.75       64.53       
C           119.91      23.24       65.79       
C           120.74      21.49       67.16       
C           120.61      21.99       65.87       
C           122.33      20.76       61.26       
O           120.6       23.12       62.48       
O           122.2       19.13       65.98       
C           119.54      25.08       64.18       
C           124.35      18.07       64.65       
H           124.57      17.12       64.12       
H           125.22695   18.71167    64.73556    
H           124.04      17.71       65.69       
H           119.78      25.83       64.94       
H           118.45932   25.21944    64.20789    
H           119.84      25.37       63.17       
H           120.1       21.76       69.2        
H           121.26      20.59       67.38       
H           121.78      21.69       61.08       
H           122.71      20.36       59.2        
C           120.0       22.11       68.22       
N           119.31      23.86       66.81       
C           119.24      23.23       68.03       
C           125.01      17.39       57.08       
C           125.84      17.06       58.13       
S           123.75      18.37       57.72       
H           125.67      16.88       60.37       
H           126.72      16.47       57.97       
C           125.28      17.28       59.44       
C           124.25      18.09       59.36       
H           120.25      4.35        44.84       
H           125.25      17.24       56.06       
