392

C           66.43       33.9        18.49       
N           66.87       33.32       17.41       
C           65.24       34.63       18.59       
C           66.15       33.44       16.3        
C           64.95       34.16       16.21       
C           64.48       34.07       14.78       
C           65.48       33.13       14.13       
N           66.49       32.94       15.07       
C           63.35       34.46       14.15       
C           61.98       34.87       14.8        
N           61.02       34.95       13.81       
C           61.61       34.86       12.55       
C           63.54       34.28       11.35       
C           63.0        34.48       12.65       
C           64.48       34.74       17.35       
O           61.7        34.92       15.99       
O           65.57       32.67       13.0        
C           59.58       35.04       14.06       
C           67.72       32.29       14.73       
H           68.52       32.62       15.4        
H           67.60054    31.21483    14.86352    
H           68.03       32.49       13.68       
H           59.2        34.24       13.4        
H           59.16464    36.02376    13.84139    
H           59.35       34.73       15.06       
H           63.31       34.45       9.24        
H           64.6        34.06       11.17       
H           63.68       35.44       17.22       
H           64.85       35.2        19.43       
C           62.84       34.49       10.22       
N           60.91       35.03       11.47       
C           61.52       34.92       10.3        
C           68.33       34.34       21.88       
C           69.25       33.95       20.96       
S           66.73       34.47       21.21       
H           69.28       33.51       18.79       
H           70.25       33.73       21.18       
C           68.69       33.76       19.65       
C           67.34       34.0        19.6        
C           69.59       34.64       32.78       
N           70.41       35.34       32.03       
C           68.68       33.78       32.23       
C           70.24       35.27       30.75       
C           69.22       34.65       30.04       
C           69.38       34.98       28.6        
C           70.76       35.64       28.52       
N           71.19       35.71       29.82       
C           68.55       34.75       27.53       
C           67.04       34.5        27.66       
N           66.53       34.4        26.38       
C           67.53       34.7        25.41       
C           69.88       34.96       25.23       
C           68.75       34.82       26.06       
C           68.37       33.9        30.89       
O           66.36       34.52       28.62       
O           71.38       36.16       27.58       
C           65.05       34.35       26.17       
C           72.57       35.89       30.21       
H           73.21       35.61       29.36       
H           72.76089    36.90808    30.54936    
H           72.76       35.2        30.92       
H           64.92       33.7        25.32       
H           64.67719    35.34656    25.93341    
H           64.57       33.83       27.03       
H           70.65       34.97       23.29       
H           70.9        35.07       25.63       
H           67.54       33.39       30.48       
H           68.16       33.1        32.85       
C           69.73       34.85       23.87       
N           67.42       34.53       24.08       
C           68.53       34.57       23.3        
C           69.79       34.15       36.71       
C           70.77       35.05       36.33       
S           68.81       33.73       35.28       
H           71.65       35.87       34.51       
H           71.57       35.36       36.95       
C           70.91       35.2        34.91       
C           69.86       34.6        34.22       
C           67.56       28.53       46.04       
N           68.67       29.33       45.97       
C           66.69       28.41       44.95       
C           68.92       29.97       44.81       
C           68.18       29.79       43.58       
C           68.83       30.59       42.55       
C           70.16       30.99       43.26       
N           70.09       30.68       44.61       
C           68.57       30.99       41.28       
C           67.5        30.3        40.49       
N           67.56       30.76       39.25       
C           68.45       31.73       39.09       
C           70.08       33.09       40.3        
C           69.16       31.95       40.35       
C           67.0        29.02       43.74       
O           66.73       29.47       40.76       
O           71.09       31.66       42.83       
C           66.42       30.75       38.43       
C           71.14       30.96       45.61       
H           72.17       30.68       45.17       
H           71.03863    31.94475    46.06617    
H           70.97       30.19       46.42       
H           66.22       31.8        38.15       
H           66.54056    30.06208    37.59315    
H           65.48       30.42       38.94       
H           70.99       34.52       39.15       
H           70.49       33.48       41.24       
H           66.39       28.78       42.91       
H           65.74       27.91       45.01       
C           70.26       33.75       39.16       
N           68.57       32.45       37.99       
C           69.53       33.44       37.99       
C           67.15       26.91       49.63       
C           66.21       26.4        48.85       
S           68.18       27.93       48.69       
H           65.41       26.81       46.74       
H           65.39       25.79       49.22       
C           66.25       26.95       47.51       
C           67.29       27.79       47.23       
C           68.95       25.94       60.55       
N           69.86       26.64       59.78       
C           67.98       25.13       59.92       
C           69.68       26.63       58.47       
C           68.71       25.97       57.76       
C           68.8        26.34       56.35       
C           70.04       27.24       56.32       
N           70.56       27.21       57.57       
C           67.96       26.09       55.21       
C           66.6        25.45       55.29       
N           66.01       25.54       54.07       
C           66.88       26.02       53.1        
C           68.99       27.0        52.88       
C           68.05       26.42       53.74       
C           67.78       25.3        58.56       
O           66.0        24.91       56.21       
O           70.58       27.85       55.45       
C           64.81       24.81       53.73       
C           71.92       27.62       57.82       
H           71.87       28.48       58.5        
H           72.55579    26.83249    58.22459    
H           72.31       27.94       56.87       
H           64.4        24.25       54.6        
H           63.97512    25.45008    53.44475    
H           65.18       24.03       53.13       
H           69.52       27.55       50.79       
H           69.97       27.19       53.23       
H           66.89       24.8        58.12       
H           67.17       24.64       60.45       
C           68.76       27.05       51.5        
N           66.52       26.2        51.84       
C           67.54       26.66       51.05       
C           69.71       26.41       64.31       
C           68.43       25.92       64.19       
S           70.41       26.7        62.75       
H           67.09       25.4        62.64       
H           67.8        25.77       65.04       
C           68.02       25.76       62.88       
C           68.97       26.09       61.99       
C           74.2        29.02       74.23       
N           74.88       29.32       73.11       
C           72.94       28.47       74.28       
C           74.21       29.1        71.94       
C           73.01       28.43       71.76       
C           72.82       28.21       70.3        
C           74.03       28.84       69.66       
N           74.79       29.39       70.7        
C           71.84       27.58       69.5        
C           70.74       26.7        70.03       
N           69.98       26.34       68.96       
C           70.47       26.78       67.77       
C           72.23       27.77       66.77       
C           71.64       27.47       67.99       
C           72.36       28.18       73.05       
O           70.47       26.23       71.11       
O           74.44       28.78       68.55       
C           68.83       25.52       69.02       
C           75.87       30.36       70.47       
H           75.98       31.1        71.3        
H           76.84708    29.88201    70.39971    
H           75.61       30.77       69.54       
H           69.04       24.61       68.42       
H           67.86043    25.97627    68.82038    
H           68.69       25.04       70.01       
H           72.05       27.85       64.7        
H           73.23       28.18       66.73       
H           71.42       27.7        73.0        
H           72.39       28.27       75.23       
C           71.6        27.51       65.56       
N           69.85       26.31       66.66       
C           70.4        26.76       65.51       
C           76.55       29.85       77.28       
C           75.46       29.3        77.77       
S           76.39       30.1        75.56       
H           73.53       28.49       76.97       
H           75.24       29.12       78.83       
C           74.5        28.87       76.79       
C           74.84       29.32       75.49       
C           84.77       31.37       84.4        
N           85.04       31.55       83.09       
C           83.58       30.86       84.84       
C           84.02       31.43       82.23       
C           82.74       30.97       82.57       
C           81.98       30.89       81.3        
C           82.99       31.37       80.21       
N           84.12       31.74       80.86       
C           80.68       30.6        80.92       
C           79.61       30.28       82.0        
N           78.44       29.99       81.42       
C           78.63       30.04       80.05       
C           80.05       30.71       78.29       
C           79.94       30.52       79.67       
C           82.53       30.63       83.94       
O           79.69       30.41       83.27       
O           82.93       31.56       79.02       
C           77.18       29.62       82.09       
C           85.19       32.63       80.34       
H           85.67       33.14       81.17       
H           85.95514    32.00398    79.88092    
H           84.73       33.32       79.64       
H           76.29       29.87       81.55       
H           77.06759    28.53809    82.16025    
H           77.1        30.03       83.16       
H           79.2        30.58       76.31       
H           80.98       31.13       77.88       
H           81.61       30.17       84.29       
H           83.37       30.71       85.84       
C           79.02       30.4        77.39       
N           77.63       29.85       79.23       
C           77.78       30.18       77.96       
C           88.1        30.49       86.13       
C           87.28       30.91       87.12       
S           87.25       30.35       84.63       
H           85.25       31.86       87.2        
H           87.59       30.93       88.18       
C           86.01       31.41       86.57       
C           85.94       31.31       85.24       
C           98.86       27.98       86.51       
N           98.21       28.68       87.51       
C           98.1        27.56       85.43       
C           96.9        28.76       87.44       
C           96.02       28.36       86.4        
C           94.64       28.79       86.77       
C           94.77       29.33       88.2        
N           96.14       29.22       88.53       
C           93.46       28.81       86.01       
C           93.31       28.37       84.51       
N           92.02       28.71       84.12       
C           91.26       29.07       85.21       
C           91.39       29.49       87.53       
C           92.07       29.18       86.33       
C           96.67       27.72       85.32       
O           94.15       28.17       83.62       
O           94.04       29.92       89.01       
C           91.52       28.35       82.85       
C           96.72       30.0        89.62       
H           96.1        30.85       89.94       
H           96.98028    29.36376    90.46591    
H           97.65       30.41       89.23       
H           90.78       29.07       82.54       
H           91.08578    27.3506     82.87757    
H           92.35       28.3        82.18       
H           89.64       30.33       88.29       
H           91.88       29.55       88.52       
H           96.07       27.42       84.47       
H           98.71       27.1        84.66       
C           90.07       29.93       87.42       
N           89.96       29.35       85.07       
C           89.43       29.95       86.21       
C           102.59      28.9        86.68       
C           102.58      27.83       85.86       
S           100.99      29.38       87.26       
H           101.06      26.57       84.93       
H           103.4       27.6        85.31       
C           101.29      27.37       85.63       
C           100.3       28.05       86.4        
C           109.69      36.73       90.11       
N           110.09      35.92       89.1        
C           108.45      36.65       90.71       
C           109.21      34.95       88.81       
C           107.86      34.84       89.24       
C           107.24      33.64       88.6        
C           108.38      33.09       87.75       
N           109.41      33.93       87.81       
C           105.97      32.96       88.73       
C           104.91      33.31       89.71       
N           103.88      32.43       89.62       
C           104.12      31.6        88.56       
C           105.64      31.09       86.78       
C           105.38      31.79       88.0        
C           107.52      35.75       90.26       
O           104.91      34.18       90.62       
O           108.48      31.99       87.11       
C           102.58      32.66       90.12       
C           110.78      33.61       87.45       
H           110.96      32.54       87.62       
H           111.02337   33.86769    86.41924    
H           111.44      34.09       88.12       
H           102.03      31.69       90.25       
H           102.04101   33.28021    89.40381    
H           102.75      33.1        91.1        
H           105.03      29.45       85.56       
H           106.53      31.31       86.19       
H           106.57      35.73       90.77       
H           108.12      37.33       91.57       
C           104.75      30.08       86.37       
N           103.28      30.71       88.11       
C           103.62      29.82       87.13       
C           112.54      39.36       89.79       
C           111.55      39.99       90.53       
S           112.18      37.71       89.54       
H           109.52      39.42       91.44       
H           111.64      41.02       90.84       
C           110.41      39.14       90.81       
C           110.64      37.85       90.3        
C           121.17      44.09       84.94       
N           120.34      43.2        84.29       
C           120.76      44.59       86.13       
C           119.21      42.81       84.82       
C           118.76      43.21       86.08       
C           117.52      42.31       86.35       
C           117.36      41.53       85.13       
N           118.41      41.8        84.3        
C           116.75      42.1        87.42       
C           117.06      42.81       88.74       
N           116.14      42.26       89.64       
C           115.25      41.4        89.09       
C           114.66      40.39       86.99       
C           115.53      41.28       87.7        
C           119.52      44.21       86.66       
O           117.89      43.63       89.0        
O           116.57      40.72       84.76       
C           116.15      42.64       91.04       
C           118.71      41.2        82.98       
H           119.81      41.37       82.77       
H           118.16021   41.65358    82.15532    
H           118.49      40.2        83.07       
H           115.19      42.41       91.49       
H           116.92626   42.12491    91.60587    
H           116.34      43.73       91.09       
H           113.01      39.0        87.29       
H           114.82      40.1        85.95       
H           119.34      44.76       87.59       
H           121.34      45.32       86.73       
C           113.67      39.72       87.73       
N           114.33      40.85       89.8        
C           113.56      40.0        89.11       
C           124.39      44.01       82.91       
C           124.63      44.85       83.95       
S           122.8       43.31       83.01       
H           123.53      45.57       85.8        
H           125.56      45.43       84.0        
C           123.47      45.0        84.83       
C           122.44      44.25       84.39       
C           132.49      40.42       76.32       
N           131.33      39.71       76.38       
C           132.62      41.63       76.96       
C           130.35      40.27       77.09       
C           130.39      41.4        77.93       
C           129.08      41.56       78.62       
C           128.32      40.39       78.11       
N           129.07      39.72       77.17       
C           128.64      42.38       79.61       
C           129.53      43.26       80.45       
N           128.86      43.87       81.48       
C           127.51      43.57       81.33       
C           125.96      42.28       80.0        
C           127.31      42.68       80.25       
C           131.66      41.99       77.91       
O           130.71      43.44       80.41       
O           127.17      40.06       78.39       
C           129.4       44.62       82.62       
C           128.64      38.57       76.39       
H           127.99      37.88       77.0        
H           128.1103    38.84182    75.47697    
H           129.47      38.04       76.13       
H           129.09      44.21       83.59       
H           129.14845   45.68058    82.62       
H           130.43      44.44       82.52       
H           123.98      42.16       80.89       
H           125.69      41.61       79.21       
H           131.91      42.83       78.62       
H           133.61      42.02       76.99       
C           125.0       42.62       80.96       
N           126.62      44.02       82.19       
C           125.35      43.52       81.94       
C           135.87      38.83       74.86       
C           134.78      38.25       74.27       
S           135.3       40.05       75.94       
H           132.49      38.36       74.55       
H           134.9       37.35       73.68       
C           133.52      38.76       74.82       
C           133.61      39.87       75.58       
H           61.13       35.62       9.56        
H           136.82      38.29       74.92       
