392

C           60.48       5.38        8.86        
N           60.38       5.15        7.54        
C           59.4        5.52        9.66        
C           59.14       5.03        7.04        
C           57.91       5.25        7.76        
C           56.81       5.04        6.81        
C           57.52       4.98        5.47        
N           58.85       4.88        5.69        
C           55.4        4.89        6.9         
C           54.83       4.56        8.28        
N           53.54       4.23        8.06        
C           53.09       4.5         6.81        
C           53.99       5.07        4.65        
C           54.25       4.87        6.02        
C           58.11       5.42        9.14        
O           55.32       4.43        9.4         
O           57.03       4.99        4.35        
C           52.65       3.64        9.03        
C           59.9        4.92        4.66        
H           60.63       5.57        5.02        
H           60.45745    3.98377     4.63141     
H           59.44       5.22        3.71        
H           51.84       3.1         8.58        
H           52.16009    4.37831     9.66481     
H           53.29       2.98        9.61        
H           52.45       5.0         3.16        
H           54.66       5.42        3.91        
H           57.27       5.42        9.81        
H           59.48       5.59        10.77       
C           52.67       4.91        4.23        
N           51.82       4.38        6.4         
C           51.61       4.69        5.13        
C           63.89       4.72        10.74       
C           64.17       5.0         9.43        
S           62.18       4.67        11.03       
H           62.89       5.44        7.6         
H           65.14       4.9         8.98        
C           62.95       5.35        8.74        
C           61.82       5.32        9.44        
C           70.28       0.89        19.2        
N           70.81       1.41        18.07       
C           68.89       0.83        19.33       
C           70.03       1.67        17.01       
C           68.58       1.69        17.07       
C           68.18       2.35        15.79       
C           69.51       2.49        15.0        
N           70.57       2.2         15.83       
C           66.99       2.74        15.18       
C           65.64       2.39        15.79       
N           64.63       2.78        14.98       
C           65.16       3.41        13.84       
C           67.1        4.05        12.71       
C           66.58       3.41        13.87       
C           68.04       1.18        18.34       
O           65.38       1.69        16.79       
O           69.75       3.08        13.93       
C           63.22       2.78        15.39       
C           71.98       1.97        15.46       
H           71.99       1.72        14.43       
H           72.67327    2.79192     15.63868    
H           72.3        1.04        15.94       
H           62.72       2.33        14.47       
H           62.83699    3.72013     15.78694    
H           62.99       1.97        16.18       
H           66.64       4.96        10.71       
H           68.14       4.24        12.63       
H           66.96       1.18        18.47       
H           68.51       0.65        20.33       
C           66.21       4.47        11.65       
N           64.32       3.92        12.96       
C           64.87       4.29        11.74       
C           72.08       0.39        22.62       
C           73.04       0.78        21.74       
S           70.55       0.43        21.88       
H           72.94       1.42        19.61       
H           74.15       0.72        21.95       
C           72.46       1.04        20.45       
C           71.16       0.82        20.34       
C           71.94       -2.93       33.2        
N           73.08       -2.97       32.55       
C           70.76       -2.83       32.53       
C           73.15       -2.44       31.35       
C           71.99       -2.26       30.53       
C           72.42       -1.81       29.12       
C           73.94       -1.85       29.29       
N           74.29       -2.38       30.56       
C           71.74       -1.41       27.99       
C           70.22       -1.14       27.9        
N           69.92       -0.8        26.62       
C           71.08       -0.72       25.86       
C           73.42       -1.0        25.85       
C           72.18       -1.02       26.64       
C           70.77       -2.51       31.15       
O           69.3        -1.19       28.77       
O           74.76       -1.79       28.4        
C           68.65       -0.25       26.18       
C           75.61       -2.73       30.93       
H           76.2        -3.21       30.13       
H           76.0794     -1.95234    31.53251    
H           75.5        -3.58       31.59       
H           68.8        0.64        25.53       
H           68.0072     -0.96344    25.66434    
H           68.04       0.06        27.03       
H           74.25       -0.46       23.95       
H           74.37       -1.29       26.2        
H           69.84       -2.33       30.63       
H           69.84       -3.0        33.16       
C           73.35       -0.54       24.55       
N           70.96       -0.3        24.6        
C           72.09       -0.13       23.98       
C           72.12       -4.02       37.01       
C           73.03       -4.68       36.35       
S           71.24       -2.94       35.91       
H           73.64       -4.92       34.26       
H           73.63       -5.52       36.77       
C           72.98       -4.37       35.0        
C           72.18       -3.38       34.59       
C           69.04       -2.87       47.71       
N           70.02       -3.71       47.34       
C           68.24       -2.24       46.69       
C           70.31       -3.96       46.1        
C           69.57       -3.38       45.0        
C           70.24       -3.85       43.71       
C           71.32       -4.83       44.29       
N           71.31       -4.84       45.62       
C           70.08       -3.58       42.36       
C           68.84       -2.8        41.76       
N           69.07       -2.66       40.4        
C           70.19       -3.33       40.03       
C           72.0        -4.56       40.83       
C           70.82       -3.89       41.16       
C           68.57       -2.5        45.31       
O           67.87       -2.38       42.27       
O           72.09       -5.53       43.64       
C           68.04       -2.08       39.49       
C           72.23       -5.63       46.46       
H           72.53       -6.55       45.97       
H           73.15641    -5.14574    46.7688     
H           71.61       -5.93       47.34       
H           67.07       -2.23       39.93       
H           68.14666    -0.99918    39.39756    
H           67.95       -2.58       38.61       
H           73.32       -5.23       39.36       
H           72.59       -4.95       41.56       
H           68.01       -2.08       44.51       
H           67.48       -1.5        46.92       
C           72.43       -4.66       39.56       
N           70.67       -3.29       38.77       
C           71.72       -4.05       38.48       
C           68.69       -3.38       51.59       
C           67.71       -2.46       51.25       
S           69.64       -3.74       50.22       
H           66.93       -1.53       49.52       
H           67.03       -2.09       51.96       
C           67.73       -2.12       49.89       
C           68.74       -2.76       49.16       
C           70.58       -6.33       61.94       
N           71.6        -6.32       61.07       
C           69.25       -6.21       61.59       
C           71.29       -6.09       59.8        
C           70.03       -5.87       59.29       
C           70.13       -5.64       57.89       
C           71.67       -5.56       57.64       
N           72.25       -5.83       58.89       
C           69.18       -5.33       56.88       
C           67.68       -5.24       57.08       
N           67.2        -4.57       55.96       
C           68.15       -4.53       54.94       
C           70.47       -4.75       54.52       
C           69.44       -4.92       55.45       
C           68.99       -5.94       60.23       
O           66.96       -5.47       58.03       
O           72.33       -5.51       56.59       
C           66.03       -3.72       56.03       
C           73.69       -5.61       59.12       
H           73.79       -5.15       60.13       
H           74.25906    -6.53922    59.09119    
H           74.07       -4.9        58.35       
H           65.38       -3.88       55.17       
H           66.34424    -2.70048    56.25346    
H           65.37       -4.16       56.78       
H           71.01       -4.34       52.48       
H           71.45       -5.06       54.71       
H           67.98       -5.97       59.86       
H           68.44       -6.35       62.31       
C           70.24       -4.26       53.23       
N           67.94       -4.04       53.75       
C           68.95       -4.02       52.86       
C           72.55       -7.11       65.14       
C           71.29       -7.25       65.51       
S           72.77       -6.83       63.39       
H           69.22       -6.85       64.53       
H           71.0        -7.39       66.56       
C           70.35       -6.84       64.44       
C           71.01       -6.67       63.28       
C           81.46       -7.34       71.66       
N           81.52       -6.96       70.41       
C           80.34       -8.07       72.17       
C           80.39       -7.03       69.73       
C           79.16       -7.61       70.11       
C           78.25       -7.44       69.01       
C           78.97       -6.46       68.07       
N           80.27       -6.34       68.56       
C           76.84       -7.64       68.8        
C           75.8        -8.12       69.84       
N           74.56       -7.95       69.31       
C           74.63       -7.59       67.95       
C           76.12       -7.03       66.22       
C           75.96       -7.43       67.52       
C           79.25       -8.26       71.35       
O           76.02       -8.39       71.03       
O           78.67       -5.8        67.1        
C           73.33       -8.25       69.99       
C           81.06       -5.2        68.15       
H           81.87       -5.1        68.82       
H           81.40223    -5.24369    67.11604    
H           80.44       -4.26       68.21       
H           72.51       -7.74       69.46       
H           73.12994    -9.31926    70.05898    
H           73.46       -7.9        70.95       
H           75.17       -6.96       64.3        
H           77.11       -7.11       65.89       
H           78.38       -8.8        71.75       
H           80.45       -8.65       73.07       
C           75.03       -6.98       65.38       
N           73.55       -7.4        67.25       
C           73.74       -7.18       65.93       
C           85.06       -6.98       72.84       
C           84.41       -7.53       73.89       
S           84.0        -6.58       71.51       
H           82.37       -8.22       74.21       
H           84.9        -7.79       74.8        
C           83.01       -7.67       73.59       
C           82.69       -7.36       72.32       
C           95.08       -2.41       72.57       
N           94.59       -2.83       73.71       
C           94.36       -2.49       71.33       
C           93.5        -3.58       73.58       
C           92.67       -3.73       72.44       
C           91.52       -4.52       72.86       
C           91.86       -4.81       74.34       
N           92.98       -4.12       74.7        
C           90.33       -4.94       72.24       
C           89.98       -4.77       70.76       
N           88.76       -5.16       70.47       
C           88.12       -5.67       71.61       
C           88.63       -6.22       73.89       
C           89.07       -5.64       72.7        
C           93.14       -3.18       71.33       
O           90.75       -4.44       69.92       
O           91.14       -5.29       75.21       
C           88.0        -4.91       69.26       
C           93.16       -3.64       76.04       
H           92.2        -3.3        76.42       
H           93.75515    -4.32017    76.64932    
H           93.73       -2.64       75.93       
H           87.01       -4.58       69.39       
H           88.02874    -5.72913    68.54146    
H           88.48       -4.03       68.81       
H           87.01       -7.19       74.82       
H           89.25       -6.13       74.76       
H           92.55       -3.19       70.41       
H           94.72       -2.02       70.41       
C           87.37       -6.79       73.87       
N           86.93       -6.11       71.65       
C           86.5        -6.72       72.75       
C           98.4        -0.8        73.78       
C           98.39       -0.58       72.47       
S           96.98       -1.66       74.29       
H           97.01       -1.13       70.75       
H           99.26       -0.11       71.92       
C           97.19       -1.11       71.82       
C           96.29       -1.68       72.67       
C           105.13      -0.83       82.67       
N           105.69      -0.64       81.44       
C           103.75      -0.87       82.77       
C           104.91      -0.46       80.42       
C           103.45      -0.49       80.43       
C           102.95      -0.41       79.06       
C           104.22      -0.34       78.22       
N           105.3       -0.28       79.08       
C           101.69      -0.44       78.42       
C           100.33      -0.33       79.21       
N           99.22       -0.31       78.37       
C           99.69       -0.37       77.05       
C           101.6       -0.43       75.7        
C           101.14      -0.4        77.05       
C           102.93      -0.63       81.68       
O           100.16      -0.1        80.36       
O           104.34      -0.29       76.96       
C           97.86       -0.17       78.75       
C           106.7       -0.41       78.59       
H           106.64      -0.66       77.5        
H           107.33518   0.44893     78.80654    
H           107.01      -1.34       79.02       
H           97.15       -0.82       78.32       
H           97.5982     0.88449     78.66273    
H           97.83       -0.38       79.84       
H           101.19      -0.56       73.54       
H           102.66      -0.44       75.48       
H           101.82      -0.47       81.85       
H           103.22      -0.87       83.76       
C           100.77      -0.32       74.56       
N           98.85       -0.32       76.0        
C           99.39       -0.45       74.77       
C           108.0       -0.82       85.41       
C           106.96      -1.59       85.9        
S           107.72      -0.34       83.72       
H           105.03      -2.34       85.1        
H           106.85      -2.07       86.83       
C           105.91      -1.71       84.96       
C           106.11      -0.98       83.8        
C           118.08      1.22        89.36       
N           117.84      1.67        88.13       
C           117.18      0.54        90.05       
C           116.61      1.46        87.66       
C           115.56      0.74        88.36       
C           114.31      0.71        87.57       
C           114.71      1.6         86.38       
N           116.07      1.93        86.45       
C           113.08      0.14        87.67       
C           112.75      -0.89       88.78       
N           111.4       -1.27       88.7        
C           110.91      -0.83       87.49       
C           111.17      0.97        85.92       
C           111.77      0.2         86.97       
C           115.95      0.25        89.6        
O           113.31      -1.21       89.8        
O           114.08      1.93        85.39       
C           110.8       -2.25       89.64       
C           116.73      2.91        85.57       
H           117.78      2.74        85.41       
H           116.61071   3.94853     85.87875    
H           116.29      2.88        84.53       
H           111.52      -3.06       89.82       
H           110.53341   -1.77446    90.58387    
H           109.96      -2.67       89.17       
H           109.47      1.41        84.86       
H           111.68      1.8         85.46       
H           115.4       -0.38       90.23       
H           117.39      0.13        91.05       
C           109.89      0.68        85.54       
N           109.72      -1.23       86.99       
C           109.23      -0.43       86.02       
C           121.51      2.85        90.45       
C           121.08      2.1         91.48       
S           120.44      2.72        89.05       
H           119.25      0.88        91.98       
H           121.58      2.06        92.45       
C           119.78      1.51        91.27       
C           119.3       1.8         90.02       
C           131.74      6.8         88.27       
N           130.7       7.57        88.04       
C           131.56      5.58        88.89       
C           129.49      7.09        88.44       
C           129.2       5.88        89.14       
C           127.69      5.79        89.25       
C           127.23      7.1         88.69       
N           128.31      7.8         88.31       
C           126.82      4.8         89.75       
C           127.29      3.65        90.62       
N           126.24      2.89        90.95       
C           125.06      3.39        90.46       
C           124.18      5.19        89.21       
C           125.34      4.56        89.76       
C           130.33      5.11        89.36       
O           128.43      3.21        90.87       
O           126.08      7.53        88.48       
C           126.34      1.79        91.89       
C           128.25      9.21        87.95       
H           127.2       9.49        88.12       
H           128.8397    9.87513     88.58084    
H           128.65      9.31        86.87       
H           125.84      1.01        91.39       
H           125.8657    1.98247     92.85234    
H           127.31      1.43        91.99       
H           121.97      5.13        89.18       
H           124.24      6.06        88.57       
H           130.24      4.06        89.64       
H           132.37      4.93        89.07       
C           122.88      4.6         89.45       
N           123.88      2.82        90.78       
C           122.79      3.46        90.28       
C           134.02      8.09        85.3        
C           134.7       7.12        86.01       
S           132.51      8.26        86.09       
H           134.57      5.84        87.83       
H           135.74      6.86        85.75       
C           134.13      6.63        87.22       
C           132.88      7.18        87.4        
H           50.73       5.25        4.93        
H           134.23      8.36        84.25       
