392

C           56.49       39.35       5.85        
N           56.4        39.5        4.52        
C           55.34       39.1        6.64        
C           55.21       39.35       4.06        
C           53.96       39.14       4.65        
C           52.86       39.2        3.67        
C           53.68       39.46       2.36        
N           55.03       39.45       2.66        
C           51.49       38.89       3.68        
C           50.86       38.0        4.7         
N           49.49       38.0        4.43        
C           49.15       38.91       3.41        
C           50.15       40.28       1.79        
C           50.37       39.38       2.86        
C           54.04       39.1        6.08        
O           51.37       37.3        5.47        
O           53.21       39.32       1.15        
C           48.52       37.31       5.31        
C           56.14       39.59       1.69        
H           57.07       39.76       2.3         
H           56.30133    38.73202    1.03735     
H           55.94       40.45       1.06        
H           47.79       36.83       4.7         
H           48.09487    38.01627    6.02313     
H           49.14       36.53       5.79        
H           48.61       40.99       0.3         
H           51.02       40.82       1.34        
H           53.16       39.1        6.71        
H           55.49       39.13       7.75        
C           48.8        40.44       1.25        
N           47.96       39.02       2.92        
C           47.74       39.76       1.8         
C           59.66       39.53       8.05        
C           60.05       39.89       6.78        
S           57.89       39.2        8.15        
H           59.09       39.9        4.88        
H           61.07       40.23       6.43        
C           58.96       39.77       5.94        
C           57.78       39.4        6.46        
C           65.02       39.59       17.86       
N           65.51       40.24       16.8        
C           63.9        38.83       17.77       
C           64.9        40.06       15.62       
C           63.72       39.33       15.38       
C           63.36       39.5        13.93       
C           64.55       40.3        13.42       
N           65.3        40.68       14.46       
C           62.3        39.1        13.12       
C           61.16       38.22       13.61       
N           60.31       37.98       12.58       
C           60.7        38.6        11.44       
C           62.46       40.02       10.65       
C           61.94       39.3        11.72       
C           63.2        38.72       16.54       
O           60.9        37.77       14.71       
O           64.87       40.58       12.27       
C           59.2        37.09       12.65       
C           66.3        41.71       14.47       
H           66.71       41.74       13.48       
H           65.99261    42.67407    14.87519    
H           67.13       41.25       15.09       
H           59.08       36.67       11.71       
H           58.30237    37.6745     12.85179    
H           59.47       36.36       13.32       
H           62.24       40.66       8.66        
H           63.34       40.59       10.7        
H           62.32       38.09       16.59       
H           63.5        38.25       18.58       
C           61.79       40.07       9.43        
N           60.0        38.76       10.35       
C           60.52       39.38       9.24        
C           66.76       39.86       21.4        
C           67.55       40.55       20.46       
S           65.34       39.28       20.59       
H           67.62       40.96       18.3        
H           68.48       41.02       20.69       
C           67.09       40.41       19.13       
C           65.87       39.78       19.02       
C           69.07       37.04       31.85       
N           69.63       38.16       31.32       
C           68.06       36.3        31.21       
C           69.18       38.52       30.16       
C           68.18       37.87       29.33       
C           68.18       38.61       28.07       
C           69.21       39.76       28.3        
N           69.66       39.66       29.58       
C           67.49       38.51       26.87       
C           66.21       37.73       26.83       
N           65.67       37.79       25.56       
C           66.43       38.55       24.74       
C           68.52       39.67       24.74       
C           67.58       39.01       25.48       
C           67.55       36.77       29.95       
O           65.58       37.11       27.73       
O           69.49       40.69       27.57       
C           64.51       37.07       25.17       
C           70.1        40.78       30.38       
H           69.81       40.74       31.44       
H           71.16565    40.97892    30.26633    
H           69.51       41.63       29.99       
H           64.53       36.03       25.53       
H           63.59529    37.54508    25.52454    
H           64.5        37.04       24.08       
H           68.87       40.64       22.85       
H           69.42       40.01       25.24       
H           66.83       36.15       29.52       
H           67.59       35.46       31.62       
C           68.2        40.01       23.41       
N           66.1        38.83       23.47       
C           66.98       39.62       22.83       
C           69.97       35.65       35.34       
C           71.03       36.44       34.96       
S           68.75       35.58       34.12       
H           71.65       37.49       33.1        
H           71.83       36.62       35.64       
C           70.88       36.9        33.58       
C           69.68       36.59       33.05       
C           67.03       33.95       45.77       
N           68.28       34.28       45.44       
C           66.2        33.38       44.86       
C           68.61       34.21       44.15       
C           67.79       33.76       43.03       
C           68.55       34.13       41.82       
C           69.76       34.91       42.36       
N           69.72       34.94       43.69       
C           68.39       33.93       40.5        
C           67.49       32.83       39.89       
N           67.58       32.88       38.52       
C           68.5        33.9        38.14       
C           69.82       35.7        39.05       
C           68.97       34.57       39.32       
C           66.58       33.26       43.45       
O           66.94       31.98       40.53       
O           70.69       35.5        41.76       
C           67.03       31.85       37.68       
C           70.86       35.3        44.55       
H           71.75       34.88       44.15       
H           70.90917    36.36077    44.79587    
H           70.77       34.68       45.49       
H           66.88       30.92       38.21       
H           66.07329    32.07511    37.20868    
H           67.79       31.55       37.03       
H           70.77       36.89       37.55       
H           70.19       36.33       39.83       
H           65.91       32.87       42.7        
H           65.21       33.0        45.23       
C           70.22       35.99       37.76       
N           68.83       34.27       36.91       
C           69.79       35.19       36.7        
C           66.93       33.99       49.61       
C           65.63       33.74       49.25       
S           68.02       34.31       48.32       
H           64.57       33.67       47.24       
H           64.79       33.5        49.93       
C           65.5        33.8        47.81       
C           66.7        34.02       47.15       
C           69.49       33.8        60.47       
N           70.21       34.41       59.61       
C           68.28       33.27       60.06       
C           69.87       34.49       58.34       
C           68.64       33.97       57.77       
C           68.65       34.32       56.38       
C           70.01       35.05       56.27       
N           70.65       35.19       57.43       
C           67.82       34.06       55.28       
C           66.46       33.35       55.42       
N           65.92       33.16       54.15       
C           66.79       33.64       53.21       
C           68.9        34.7        52.82       
C           67.97       34.16       53.79       
C           67.78       33.34       58.79       
O           66.05       32.82       56.37       
O           70.62       35.44       55.27       
C           64.49       33.15       54.01       
C           72.07       35.5        57.62       
H           72.11       35.7        58.74       
H           72.69364    34.6311     57.40978    
H           72.35       36.41       57.02       
H           64.25       32.68       53.04       
H           64.09847    34.16379    54.0939     
H           64.1        32.5        54.79       
H           69.26       35.26       50.78       
H           69.84       35.2        53.03       
H           66.84       32.86       58.62       
H           67.58       32.79       60.85       
C           68.5        34.79       51.45       
N           66.51       33.56       51.93       
C           67.4        34.07       51.0        
C           71.35       34.06       63.76       
C           70.46       33.01       63.92       
S           71.01       34.95       62.37       
H           69.11       31.93       62.56       
H           70.34       32.49       64.82       
C           69.68       32.78       62.79       
C           70.01       33.69       61.8        
C           78.64       37.42       71.36       
N           78.92       37.71       70.1        
C           77.51       36.72       71.78       
C           78.06       37.2        69.18       
C           76.88       36.41       69.36       
C           76.12       36.17       68.15       
C           77.2        36.65       67.18       
N           78.27       37.28       67.83       
C           74.99       35.45       67.76       
C           74.22       34.61       68.75       
N           73.16       34.07       68.14       
C           73.17       34.38       66.79       
C           74.22       35.82       65.3        
C           74.21       35.36       66.54       
C           76.65       36.27       70.78       
O           74.54       34.25       69.89       
O           77.11       36.84       65.91       
C           72.4        32.98       68.77       
C           79.32       38.08       67.18       
H           79.83       38.79       67.89       
H           79.99639    37.50024    66.55193    
H           78.85       38.7        66.42       
H           71.42       33.13       68.55       
H           72.69094    32.03623    68.30876    
H           72.5        33.16       69.81       
H           73.21       35.89       63.33       
H           75.0        36.44       65.04       
H           75.72       35.89       71.17       
H           77.29       36.5        72.75       
C           73.2        35.5        64.34       
N           72.25       33.95       65.92       
C           72.24       34.58       64.69       
C           81.8        38.24       73.48       
C           80.74       37.92       74.26       
S           81.25       38.24       71.87       
H           78.64       37.27       74.14       
H           80.85       37.76       75.31       
C           79.49       37.72       73.62       
C           79.66       37.8        72.31       
C           92.77       39.72       74.32       
N           91.98       39.89       75.44       
C           92.16       39.54       73.1        
C           90.68       39.72       75.26       
C           89.94       39.45       74.07       
C           88.5        39.4        74.39       
C           88.52       39.55       75.9        
N           89.81       39.82       76.32       
C           87.38       39.3        73.63       
C           87.35       39.41       72.13       
N           86.01       39.47       71.75       
C           85.2        39.23       72.81       
C           85.16       38.85       75.12       
C           85.95       39.11       73.97       
C           90.77       39.36       72.96       
O           88.31       39.65       71.4        
O           87.67       39.31       76.78       
C           85.47       39.84       70.4        
C           90.16       40.4        77.55       
H           89.46       41.1        77.94       
H           90.29215    39.63494    78.31506    
H           90.98       41.02       77.36       
H           84.48       40.3        70.51       
H           85.55694    39.09375    69.61028    
H           86.13       40.7        70.13       
H           83.28       38.3        75.86       
H           85.58       38.64       76.08       
H           90.41       39.13       71.98       
H           92.74       39.49       72.2        
C           83.79       38.63       75.03       
N           83.88       39.08       72.62       
C           83.16       38.76       73.78       
C           96.25       40.16       75.65       
C           96.37       39.72       74.37       
S           94.6        40.05       76.2        
H           94.92       39.28       72.72       
H           97.25       39.53       73.82       
C           95.13       39.6        73.74       
C           94.13       39.81       74.57       
C           102.92      42.74       84.15       
N           103.51      42.44       82.98       
C           101.58      42.75       84.36       
C           102.67      42.15       82.0        
C           101.24      42.12       82.08       
C           100.76      41.82       80.68       
C           102.01      41.56       79.88       
N           103.08      41.91       80.69       
C           99.5        41.72       80.08       
C           98.14       41.85       80.83       
N           97.11       41.55       79.94       
C           97.61       41.35       78.68       
C           99.5        41.03       77.41       
C           99.0        41.35       78.72       
C           100.72      42.42       83.3        
O           97.83       42.02       82.02       
O           102.19      41.38       78.65       
C           95.69       41.43       80.34       
C           104.35      42.15       80.07       
H           104.51      41.32       79.36       
H           104.33592   43.13585    79.60524    
H           105.14      42.13       80.84       
H           95.14       40.93       79.6        
H           95.18097    42.38443    80.47433    
H           95.66       40.83       81.26       
H           99.12       40.27       75.47       
H           100.53      41.16       77.15       
H           99.68       42.4        83.42       
H           101.18      42.83       85.36       
C           98.62       40.56       76.41       
N           96.77       40.93       77.77       
C           97.24       40.49       76.63       
C           106.08      43.15       86.49       
C           104.98      43.4        87.21       
S           105.62      42.67       84.92       
H           102.71      43.59       86.92       
H           105.07      43.67       88.24       
C           103.73      43.28       86.51       
C           103.91      42.9        85.25       
C           116.11      41.01       90.43       
N           115.83      40.95       89.11       
C           115.15      41.51       91.27       
C           114.64      41.28       88.66       
C           113.59      41.78       89.47       
C           112.41      41.98       88.54       
C           112.99      41.61       87.17       
N           114.22      41.11       87.32       
C           111.08      42.28       88.73       
C           110.48      42.34       90.16       
N           109.2       42.72       90.01       
C           108.92      42.91       88.65       
C           109.86      43.06       86.51       
C           110.03      42.67       87.85       
C           113.87      41.88       90.87       
O           111.0       42.34       91.3        
O           112.38      41.45       86.16       
C           108.31      42.94       91.11       
C           114.97      40.36       86.3        
H           115.18      39.38       86.63       
H           115.8245    40.91506    85.91292    
H           114.23      40.22       85.41       
H           108.39      42.24       91.91       
H           108.44285   43.95385    91.48757    
H           107.36      42.76       90.59       
H           108.32      43.4        85.03       
H           110.68      43.11       85.82       
H           113.17      42.03       91.66       
H           115.46      41.63       92.33       
C           108.53      43.28       86.09       
N           107.67      43.04       88.28       
C           107.42      43.21       86.96       
C           119.83      40.12       90.68       
C           119.26      39.76       91.85       
S           118.69      40.84       89.69       
H           117.28      39.99       92.83       
H           119.88      39.31       92.62       
C           117.9       40.17       91.94       
C           117.43      40.62       90.82       
C           130.59      40.17       88.0        
N           129.68      40.5        87.09       
C           130.18      39.81       89.34       
C           128.37      40.59       87.51       
C           127.87      40.33       88.83       
C           126.42      40.49       88.75       
C           126.18      41.04       87.33       
N           127.4       41.12       86.7        
C           125.39      40.04       89.57       
C           125.62      39.05       90.79       
N           124.39      38.8        91.36       
C           123.35      39.5        90.63       
C           122.95      40.96       88.84       
C           123.93      40.22       89.54       
C           128.84      39.9        89.68       
O           126.61      38.53       91.16       
O           125.12      41.27       86.77       
C           124.22      38.28       92.7        
C           127.58      41.44       85.31       
H           126.77      41.14       84.69       
H           127.7887    42.50508    85.20925    
H           128.42      40.86       84.85       
H           123.35      37.65       92.77       
H           124.28323   39.03169    93.48681    
H           125.06      37.59       92.82       
H           120.91      41.32       88.44       
H           123.27      41.62       88.05       
H           128.52      39.69       90.66       
H           130.94      39.52       90.06       
C           121.6       40.89       89.15       
N           122.1       39.45       90.95       
C           121.21      40.18       90.23       
C           133.87      39.46       85.96       
C           134.24      39.35       87.31       
S           132.2       39.68       85.81       
H           133.19      39.67       89.29       
H           135.17      38.97       87.68       
C           133.14      39.72       88.19       
C           132.0       39.9        87.52       
H           46.79       39.93       1.29        
H           134.51      39.11       85.12       
