392

C           58.79       14.03       26.7        
N           57.48       14.1        27.05       
C           59.13       14.04       25.36       
C           56.58       13.97       26.12       
C           56.86       14.04       24.7        
C           55.53       13.95       23.98       
C           54.52       13.99       25.1        
N           55.19       14.07       26.33       
C           55.18       13.88       22.7        
C           56.14       13.36       21.64       
N           55.5        13.39       20.39       
C           54.18       13.83       20.51       
C           52.63       14.52       22.15       
C           53.92       14.08       21.91       
C           58.21       14.09       24.35       
O           57.32       12.93       21.78       
O           53.34       13.95       25.13       
C           56.11       12.87       19.22       
C           54.59       13.95       27.67       
H           53.68       14.63       27.77       
H           54.33753    12.92569    27.94411    
H           55.43       14.32       28.29       
H           55.94       13.59       18.36       
H           55.77954    11.85706    18.99011    
H           57.16       12.9        19.46       
H           50.85       15.01       21.16       
H           52.37       14.79       23.14       
H           58.61       14.11       23.32       
H           60.2        13.88       25.03       
C           51.81       14.72       21.04       
N           53.36       13.9        19.45       
C           52.11       14.38       19.73       
C           60.71       14.55       30.09       
C           61.59       14.22       29.18       
S           59.08       14.42       29.42       
H           61.73       13.83       27.04       
H           62.65       14.28       29.33       
C           61.1        13.89       27.92       
C           59.77       14.18       27.81       
C           62.97       17.92       40.2        
N           63.72       18.33       39.14       
C           61.66       17.59       39.99       
C           63.22       18.3        37.92       
C           61.99       17.79       37.55       
C           61.97       17.61       36.08       
C           63.24       18.33       35.62       
N           63.98       18.55       36.74       
C           61.14       16.96       35.19       
C           59.79       16.41       35.54       
N           59.19       15.71       34.52       
C           60.08       15.8        33.44       
C           62.28       16.64       32.84       
C           61.31       16.44       33.82       
C           61.17       17.51       38.62       
O           59.19       16.56       36.56       
O           63.56       18.76       34.55       
C           58.19       14.6        34.64       
C           65.41       19.02       36.63       
H           65.82       19.27       37.64       
H           66.03547    18.25075    36.17708    
H           65.34       19.89       36.08       
H           58.13       13.94       33.71       
H           57.17647    14.96792    34.48033    
H           58.34       14.05       35.58       
H           62.96       15.89       30.93       
H           63.16       17.33       32.97       
H           60.16       17.24       38.46       
H           61.0        17.71       40.8        
C           62.14       15.92       31.62       
N           59.92       15.22       32.26       
C           60.96       15.15       31.36       
C           64.28       17.79       43.83       
C           65.34       18.08       43.04       
S           62.84       17.57       42.89       
H           65.73       18.74       40.99       
H           66.33       18.4        43.42       
C           64.95       18.38       41.69       
C           63.67       18.03       41.46       
C           63.37       15.6        54.75       
N           64.56       16.03       54.29       
C           62.25       15.7        53.93       
C           64.65       16.36       52.94       
C           63.54       16.41       52.02       
C           64.09       16.71       50.64       
C           65.61       16.87       50.95       
N           65.81       16.68       52.28       
C           63.46       16.84       49.31       
C           61.97       16.56       49.01       
N           61.78       16.59       47.69       
C           62.9        17.13       47.06       
C           65.17       17.76       47.41       
C           63.96       17.31       47.98       
C           62.3        16.16       52.61       
O           61.12       16.3        49.84       
O           66.5        17.06       50.18       
C           60.59       16.26       46.98       
C           67.03       17.17       52.96       
H           67.89       17.07       52.27       
H           66.95698    18.13382    53.46381    
H           67.11       16.4        53.7        
H           59.99       15.53       47.56       
H           59.96688    17.13803    46.81006    
H           60.97       15.86       46.05       
H           66.19       18.01       45.55       
H           66.07       17.66       47.92       
H           61.38       16.29       52.08       
H           61.29       15.33       54.29       
C           65.27       17.94       46.05       
N           63.0        17.28       45.78       
C           64.17       17.66       45.27       
C           63.74       14.3        58.35       
C           62.43       14.54       58.12       
S           64.69       14.66       56.93       
H           61.16       15.26       56.52       
H           61.68       14.16       58.87       
C           62.14       15.07       56.85       
C           63.28       15.21       56.08       
C           68.01       8.91        67.15       
N           68.45       10.18       66.93       
C           66.97       8.33        66.36       
C           67.85       10.83       65.87       
C           66.85       10.39       64.98       
C           66.48       11.51       64.06       
C           67.52       12.51       64.44       
N           68.15       12.14       65.61       
C           65.55       11.65       63.04       
C           64.18       10.94       63.07       
N           63.41       11.46       62.02       
C           64.12       12.41       61.34       
C           66.26       13.36       61.06       
C           65.43       12.54       61.86       
C           66.49       9.06        65.26       
O           63.77       10.08       63.78       
O           67.62       13.65       63.91       
C           62.19       10.77       61.55       
C           69.31       12.78       66.25       
H           69.92       13.11       65.43       
H           69.05601    13.61251    66.90613    
H           69.87       12.0        66.71       
H           62.24       9.69        61.89       
H           61.28494    11.32152    61.80455    
H           62.23       10.78       60.49       
H           66.31       14.67       59.27       
H           67.27       13.43       61.46       
H           65.77       8.66        64.65       
H           66.55       7.33        66.51       
C           65.71       14.1        60.01       
N           63.57       12.95       60.29       
C           64.38       13.78       59.59       
C           69.28       8.17        70.71       
C           68.58       7.03        70.25       
S           69.48       9.3         69.4        
H           67.49       6.37        68.4        
H           68.36       6.26        70.9        
C           68.13       7.12        68.86       
C           68.46       8.36        68.33       
C           71.34       11.23       81.13       
N           72.16       11.64       80.2        
C           70.45       10.29       80.94       
C           72.14       10.97       79.01       
C           71.14       10.01       78.6        
C           71.37       9.78        77.09       
C           72.53       10.67       76.73       
N           72.79       11.4        77.9        
C           70.62       9.08        76.1        
C           69.6        7.96        76.5        
N           69.06       7.36        75.38       
C           69.58       8.04        74.27       
C           70.98       9.96        73.51       
C           70.52       9.1         74.61       
C           70.28       9.66        79.69       
O           69.44       7.54        77.66       
O           73.01       10.91       75.67       
C           67.77       6.7         75.39       
C           73.85       12.39       77.97       
H           73.44       13.3        78.38       
H           74.72956    12.11377    78.55153    
H           74.21       12.52       76.97       
H           67.67       6.13        74.5        
H           66.98839    7.44703     75.25166    
H           67.72       6.13        76.3        
H           71.06       10.12       71.47       
H           71.57       10.83       73.63       
H           69.61       8.82        79.57       
H           69.78       9.98        81.74       
C           70.58       9.57        72.24       
N           69.2        7.74        73.02       
C           69.74       8.51        72.01       
C           71.17       13.9        83.98       
C           71.03       12.69       84.54       
S           71.47       13.77       82.28       
H           70.62       10.59       83.81       
H           71.09       12.63       85.63       
C           70.95       11.64       83.59       
C           71.36       12.04       82.35       
C           73.92       23.39       89.1        
N           73.66       23.38       87.76       
C           73.82       22.2        89.88       
C           73.4        22.2        87.23       
C           73.22       20.97       87.91       
C           72.86       19.97       86.92       
C           73.1        20.7        85.59       
N           73.32       22.03       85.81       
C           72.47       18.61       86.87       
C           72.4        17.72       88.09       
N           72.21       16.4        87.77       
C           72.0        16.31       86.41       
C           71.74       17.6        84.47       
C           72.13       17.62       85.83       
C           73.38       21.03       89.34       
O           72.57       17.9        89.3        
O           73.01       20.23       84.46       
C           71.92       15.32       88.68       
C           74.11       22.79       84.86       
H           74.59       22.11       84.22       
H           73.64271    23.66794    84.41395    
H           74.91       23.15       85.48       
H           71.4        14.43       88.25       
H           72.85527    14.87735    89.02269    
H           71.36       15.65       89.54       
H           71.36       16.36       82.77       
H           71.59       18.49       83.91       
H           73.22       20.12       89.93       
H           74.01       22.29       90.91       
C           71.46       16.35       83.84       
N           71.75       15.16       85.82       
C           71.4        15.23       84.56       
C           75.86       26.69       89.4        
C           75.7        26.22       90.68       
S           74.94       25.68       88.33       
H           74.98       24.37       91.66       
H           76.16       26.7        91.55       
C           75.09       24.93       90.75       
C           74.6        24.53       89.56       
C           81.67       34.95       84.96       
N           81.56       34.76       86.31       
C           81.03       34.13       84.05       
C           80.66       33.87       86.62       
C           80.03       32.88       85.82       
C           79.25       31.95       86.71       
C           79.56       32.56       88.14       
N           80.33       33.71       87.98       
C           78.55       30.78       86.57       
C           78.45       29.98       85.27       
N           77.91       28.76       85.57       
C           77.43       28.71       86.87       
C           77.23       30.13       88.82       
C           77.8        29.93       87.53       
C           80.26       33.04       84.47       
O           78.95       30.14       84.15       
O           79.29       32.22       89.23       
C           77.94       27.61       84.76       
C           80.47       34.69       88.99       
H           81.32       35.34       88.86       
H           79.59303    35.33545    89.03911    
H           80.57       34.23       89.97       
H           76.94       27.21       84.72       
H           78.62689    26.85302    85.13849    
H           78.19       27.91       83.74       
H           76.35       29.16       90.47       
H           77.31       31.05       89.42       
H           79.76       32.38       83.84       
H           81.11       34.35       82.95       
C           76.74       29.07       89.48       
N           76.8        27.6        87.52       
C           76.55       27.81       88.84       
C           83.82       38.09       84.94       
C           83.94       37.61       83.68       
S           82.66       37.2        85.86       
H           82.97       35.94       82.53       
H           84.41       38.01       82.81       
C           83.1        36.48       83.44       
C           82.52       36.04       84.59       
C           89.26       44.83       91.27       
N           89.26       45.18       89.98       
C           88.55       43.82       91.89       
C           88.4        44.47       89.25       
C           87.57       43.45       89.68       
C           86.83       43.0        88.49       
C           87.25       43.98       87.34       
N           88.13       44.84       87.94       
C           85.9        42.07       88.26       
C           85.03       41.52       89.45       
N           84.14       40.63       88.85       
C           84.53       40.35       87.55       
C           85.72       41.25       85.74       
C           85.43       41.32       87.1        
C           87.7        43.14       91.07       
O           84.97       41.94       90.62       
O           86.79       44.07       86.21       
C           82.97       40.15       89.6        
C           88.68       45.96       87.22       
H           89.22       45.55       86.44       
H           87.90764    46.71029    87.05082    
H           89.44       46.44       87.82       
H           82.78       39.18       89.26       
H           82.11716    40.79324    89.38318    
H           83.19       40.12       90.67       
H           85.64       39.95       84.02       
H           86.42       41.93       85.25       
H           87.23       42.31       91.44       
H           88.63       43.48       92.95       
C           85.19       40.22       85.01       
N           83.98       39.39       86.87       
C           84.32       39.31       85.54       
C           91.5        46.79       93.77       
C           92.2        46.63       92.59       
S           90.04       45.88       93.77       
H           91.68       45.99       90.48       
H           93.21       47.0        92.36       
C           91.44       45.99       91.59       
C           90.22       45.54       92.09       
C           94.48       50.03       103.99      
N           95.39       49.35       103.18      
C           93.13       50.06       103.68      
C           94.88       48.94       102.03      
C           93.58       49.08       101.56      
C           93.58       48.58       100.13      
C           94.98       47.94       100.07      
N           95.7        48.2        101.22      
C           92.67       48.57       99.06       
C           91.22       49.11       99.14       
N           90.49       48.84       97.98       
C           91.35       48.21       97.07       
C           93.6        47.63       96.75       
C           92.68       48.04       97.67       
C           92.66       49.68       102.42      
O           90.71       49.76       100.04      
O           95.52       47.3        99.18       
C           89.11       49.11       97.74       
C           97.06       47.78       101.49      
H           97.12       47.17       102.38      
H           97.84381    48.53531    101.547     
H           97.36       47.16       100.61      
H           89.07       49.45       96.68       
H           88.48888    48.23908    97.94929    
H           88.81       49.91       98.4        
H           94.04       46.65       94.87       
H           94.63       47.71       97.03       
H           91.58       49.79       102.2       
H           92.42       50.46       104.45      
C           93.24       47.12       95.53       
N           90.95       47.75       95.89       
C           91.94       47.25       95.09       
C           96.69       50.78       107.19      
C           95.43       51.33       107.36      
S           96.63       49.83       105.68      
H           93.57       51.61       106.23      
H           95.15       51.95       108.23      
C           94.58       51.21       106.22      
C           95.06       50.38       105.27      
C           105.04      51.68       114.36      
N           105.28      51.91       113.07      
C           103.8       51.37       114.91      
C           104.27      51.59       112.32      
C           102.93      51.4        112.62      
C           102.14      51.33       111.4       
C           103.24      51.46       110.3       
N           104.46      51.59       110.97      
C           100.72      51.33       111.07      
C           99.7        51.64       112.18      
N           98.46       51.6        111.52      
C           98.55       51.28       110.17      
C           100.21      50.82       108.48      
C           99.91       51.11       109.8       
C           102.73      51.27       114.01      
O           99.83       52.02       113.36      
O           103.24      51.39       109.06      
C           97.2        52.0        112.1       
C           105.67      51.99       110.25      
H           105.68      51.55       109.28      
H           105.80405   53.06942    110.17945   
H           106.51      51.55       110.86      
H           96.37       51.38       111.71      
H           97.05068    53.07371    111.98623   
H           97.37       51.75       113.12      
H           99.39       50.48       106.56      
H           101.23      50.71       108.14      
H           101.72      51.25       114.43      
H           103.76      51.07       115.91      
C           99.15       50.68       107.62      
N           97.49       51.13       109.35      
C           97.8        50.76       108.09      
C           108.43      51.84       116.29      
C           107.66      50.95       116.98      
S           107.66      52.27       114.79      
H           105.63      50.04       116.72      
H           108.04      50.4        117.78      
C           106.39      50.67       116.3       
C           106.25      51.44       115.18      
H           51.3        14.29       19.02       
H           109.48      51.92       116.43      
