392

C           54.89       18.55       14.61       
N           53.84       18.27       15.46       
C           54.68       18.83       13.23       
C           52.62       18.19       14.91       
C           52.24       18.6        13.56       
C           50.78       18.37       13.37       
C           50.41       18.15       14.81       
N           51.5        18.0        15.65       
C           49.79       18.43       12.36       
C           50.16       18.66       10.88       
N           48.99       18.8        10.16       
C           47.92       18.52       10.95       
C           47.24       18.2        13.2        
C           48.27       18.33       12.28       
C           53.35       18.86       12.7        
O           51.24       18.68       10.41       
O           49.31       17.97       15.21       
C           48.86       19.39       8.82        
C           51.52       17.67       17.06       
H           50.59       18.07       17.54       
H           51.7088     16.62812    17.31872    
H           52.43       18.12       17.5        
H           48.09       20.22       8.83        
H           48.57078    18.59463    8.13309     
H           49.84       19.78       8.52        
H           45.17       17.91       13.44       
H           47.34       17.86       14.21       
H           53.26       18.94       11.62       
H           55.52       19.08       12.65       
C           45.94       18.16       12.7        
N           46.68       18.49       10.47       
C           45.68       18.25       11.35       
C           58.04       18.86       16.96       
C           58.5        19.07       15.68       
S           56.35       18.41       16.92       
H           57.7        19.13       13.64       
H           59.54       19.27       15.46       
C           57.51       18.96       14.67       
C           56.29       18.58       15.24       
C           61.72       17.44       27.28       
N           62.63       17.71       26.35       
C           60.34       17.58       27.08       
C           62.1        18.04       25.19       
C           60.75       18.1        24.7        
C           60.72       18.38       23.31       
C           62.18       18.35       22.97       
N           62.91       18.04       24.1        
C           59.66       18.56       22.37       
C           58.26       18.76       22.8        
N           57.51       18.94       21.66       
C           58.3        18.89       20.5        
C           60.54       18.74       19.82       
C           59.64       18.71       20.87       
C           59.87       17.82       25.78       
O           57.73       18.85       23.89       
O           62.78       18.51       21.92       
C           56.11       18.5        21.68       
C           64.29       17.64       24.06       
H           64.86       18.05       24.91       
H           64.47355    16.57397    23.92586    
H           64.63       18.08       23.13       
H           55.98       17.79       20.85       
H           55.43512    19.34719    21.55795    
H           56.0        18.11       22.65       
H           60.74       18.48       17.57       
H           61.59       18.77       20.0        
H           58.77       17.72       25.61       
H           59.64       17.38       27.82       
C           60.07       18.75       18.45       
N           57.82       19.01       19.24       
C           58.7        19.02       18.23       
C           62.73       17.24       31.06       
C           63.89       17.15       30.32       
S           61.35       17.47       30.05       
H           64.44       16.98       28.18       
H           64.87       17.03       30.79       
C           63.66       17.05       28.92       
C           62.33       17.23       28.61       
C           59.76       16.48       41.87       
N           61.06       16.25       41.47       
C           58.77       16.82       40.92       
C           61.37       16.45       40.26       
C           60.53       16.82       39.18       
C           61.32       16.69       37.85       
C           62.67       16.38       38.37       
N           62.64       16.28       39.74       
C           61.18       17.06       36.49       
C           59.93       17.76       36.02       
N           59.98       18.02       34.65       
C           61.22       17.56       34.17       
C           63.2        16.42       34.66       
C           61.99       16.95       35.22       
C           59.2        17.07       39.58       
O           58.95       18.02       36.73       
O           63.74       16.38       37.72       
C           59.07       18.88       33.91       
C           63.78       16.23       40.55       
H           64.54       15.65       40.06       
H           64.07632    17.24595    40.81104    
H           63.37       15.59       41.42       
H           58.06       18.95       34.38       
H           59.45368    19.89605    33.81763    
H           58.86       18.37       32.94       
H           64.4        16.09       32.91       
H           63.81       15.79       35.22       
H           58.51       17.28       38.76       
H           57.74       17.06       41.15       
C           63.44       16.51       33.28       
N           61.41       17.72       32.84       
C           62.57       17.21       32.46       
C           59.86       15.4        45.61       
C           58.54       15.25       45.19       
S           60.96       15.87       44.3        
H           57.32       15.63       43.4        
H           57.84       14.82       45.85       
C           58.32       15.66       43.82       
C           59.57       16.14       43.24       
C           63.05       13.64       56.14       
N           63.81       14.31       55.24       
C           61.84       13.18       55.79       
C           63.32       14.63       54.08       
C           62.08       14.29       53.59       
C           61.96       14.72       52.13       
C           63.39       15.24       51.89       
N           64.11       15.17       53.11       
C           60.97       14.61       51.1        
C           59.54       14.11       51.28       
N           58.92       14.25       50.09       
C           59.79       14.61       49.11       
C           62.04       15.28       48.68       
C           61.03       14.95       49.67       
C           61.32       13.61       54.51       
O           59.11       13.66       52.27       
O           63.74       16.0        51.0        
C           57.49       14.06       49.87       
C           65.38       15.76       53.26       
H           65.95       15.81       52.32       
H           65.33031    16.73952    53.73557    
H           66.04       15.11       53.81       
H           57.09       13.39       50.66       
H           56.93448    14.99068    49.75457    
H           57.48       13.33       49.11       
H           62.36       15.74       46.62       
H           63.05       15.4        49.04       
H           60.35       13.29       54.28       
H           61.26       12.62       56.55       
C           61.6        15.47       47.33       
N           59.38       14.82       47.84       
C           60.27       15.2        46.94       
C           65.12       13.78       59.39       
C           64.13       12.91       59.57       
S           65.09       14.35       57.76       
H           62.45       11.98       58.6        
H           64.01       12.33       60.51       
C           63.22       12.7        58.5        
C           63.64       13.47       57.47       
C           72.89       13.8        67.48       
N           72.94       14.88       66.58       
C           72.04       12.74       67.3        
C           72.09       14.82       65.53       
C           71.13       13.76       65.25       
C           70.39       14.12       64.04       
C           71.01       15.46       63.67       
N           72.04       15.79       64.54       
C           69.4        13.56       63.21       
C           68.9        12.12       63.41       
N           67.91       11.87       62.53       
C           67.6        12.98       61.82       
C           68.16       15.07       61.34       
C           68.47       14.0        62.1        
C           71.14       12.71       66.21       
O           69.44       11.26       64.12       
O           70.73       16.14       62.7        
C           67.11       10.64       62.55       
C           72.96       16.93       64.41       
H           73.22       17.35       65.42       
H           73.94567    16.78919    63.96645    
H           72.41       17.63       63.81       
H           66.66       10.49       61.57       
H           66.29319    10.61057    63.27115    
H           67.71       9.78        62.69       
H           66.81       15.99       59.9        
H           68.76       15.94       61.53       
H           70.35       12.0        66.26       
H           71.92       11.88       68.01       
C           67.08       15.11       60.42       
N           66.64       12.87       60.96       
C           66.34       13.96       60.23       
C           75.15       14.73       70.55       
C           74.76       13.46       70.67       
S           74.59       15.36       69.04       
H           73.48       11.9        69.62       
H           75.12       12.83       71.47       
C           73.93       12.94       69.63       
C           73.73       13.86       68.67       
C           77.82       19.96       79.62       
N           78.39       20.56       78.54       
C           77.14       18.72       79.55       
C           78.18       19.94       77.39       
C           77.55       18.71       77.23       
C           77.62       18.26       75.82       
C           78.07       19.6        75.18       
N           78.51       20.49       76.18       
C           77.29       17.11       75.1        
C           77.35       15.67       75.65       
N           76.99       14.77       74.68       
C           76.66       15.51       73.59       
C           76.48       17.68       72.54       
C           76.85       16.92       73.68       
C           77.06       18.07       78.35       
O           77.58       15.28       76.8        
O           78.17       19.84       73.99       
C           77.39       13.33       74.61       
C           79.33       21.66       75.83       
H           79.99       21.4        75.02       
H           78.63142    22.47748    75.65164    
H           79.94       21.86       76.72       
H           76.79       12.78       73.94       
H           78.39963    13.16055    74.2358     
H           77.23       12.88       75.63       
H           75.69       17.44       70.52       
H           76.56       18.77       72.54       
H           76.63       17.06       78.3        
H           76.82       18.15       80.42       
C           76.08       16.92       71.39       
N           76.15       14.87       72.63       
C           75.87       15.51       71.49       
C           79.05       21.44       82.95       
C           77.69       21.63       82.98       
S           79.62       20.92       81.4        
H           76.05       21.0        81.67       
H           77.22       21.97       83.89       
C           77.08       21.07       81.78       
C           78.03       20.59       80.9        
C           87.59       23.02       89.67       
N           86.35       23.39       89.97       
C           87.78       22.21       88.53       
C           85.33       23.16       89.22       
C           85.41       22.36       88.07       
C           84.05       22.31       87.46       
C           83.21       22.97       88.6        
N           84.02       23.48       89.6        
C           83.53       21.83       86.3        
C           84.39       21.17       85.22       
N           83.53       20.93       84.21       
C           82.27       21.38       84.44       
C           80.86       22.4        86.02       
C           82.18       21.95       85.68       
C           86.67       21.85       87.78       
O           85.59       21.02       85.08       
O           82.02       23.1        88.75       
C           83.96       20.24       83.0        
C           83.7        23.41       91.01       
H           84.5        22.85       91.53       
H           83.55956    24.39306    91.4594     
H           82.77       22.81       91.09       
H           83.34       20.44       82.1        
H           83.94562    19.16163    83.15816    
H           84.97       20.56       82.77       
H           78.86       22.65       85.43       
H           80.68       22.98       86.85       
H           86.84       21.11       87.04       
H           88.8        21.87       88.28       
C           79.8        22.17       85.15       
N           81.29       21.26       83.56       
C           80.06       21.63       83.93       
C           89.82       25.34       91.84       
C           90.69       24.45       91.23       
S           88.17       24.98       91.41       
H           90.43       22.66       89.87       
H           91.78       24.51       91.36       
C           90.0        23.51       90.39       
C           88.69       23.64       90.41       
C           90.54       33.02       99.85       
N           91.68       32.48       99.48       
C           89.33       32.65       99.23       
C           91.62       31.56       98.52       
C           90.52       31.31       97.66       
C           90.97       30.32       96.57       
C           92.37       29.97       96.98       
N           92.75       30.8        98.05       
C           90.21       29.64       95.59       
C           88.72       29.88       95.32       
N           88.28       28.93       94.43       
C           89.3        28.16       93.97       
C           91.57       27.69       94.24       
C           90.49       28.51       94.67       
C           89.28       31.78       98.17       
O           88.03       30.79       95.72       
O           93.11       29.16       96.48       
C           86.91       28.87       93.89       
C           94.08       30.78       98.63       
H           94.64       29.8        98.59       
H           94.75084    31.56625    98.28376    
H           94.0        30.88       99.67       
H           86.73       27.81       93.68       
H           86.80237    29.47992    92.99306    
H           86.15       29.18       94.62       
H           92.24       26.23       92.85       
H           92.58       27.98       94.57       
H           88.4        31.54       97.72       
H           88.37       32.97       99.65       
C           91.41       26.73       93.2        
N           89.07       27.23       93.01       
C           90.16       26.48       92.64       
C           91.59       35.39       102.8       
C           90.25       35.57       102.6       
S           92.2        34.27       101.62      
H           88.58       34.58       101.46      
H           89.66       36.23       103.23      
C           89.67       34.68       101.63      
C           90.64       33.97       100.97      
C           97.36       38.17       111.85      
N           97.97       38.02       110.68      
C           95.99       38.28       111.88      
C           97.27       37.72       109.63      
C           95.85       37.8        109.42      
C           95.44       37.47       108.06      
C           96.88       37.18       107.44      
N           97.8        37.29       108.43      
C           94.24       37.33       107.38      
C           92.89       37.52       108.03      
N           91.98       37.34       107.02      
C           92.59       36.99       105.82      
C           94.61       36.67       104.65      
C           93.98       36.98       105.91      
C           95.22       38.14       110.65      
O           92.55       37.85       109.17      
O           97.07       36.78       106.38      
C           90.56       37.41       107.27      
C           99.15       36.88       108.2       
H           99.43       36.42       109.08      
H           99.72875    37.7843     108.0119    
H           99.13       36.09       107.41      
H           89.91       37.77       106.38      
H           90.16085    36.44364    107.57811   
H           90.43       38.14       108.1       
H           94.38       35.73       102.71      
H           95.66       36.62       104.61      
H           94.12       38.12       110.81      
H           95.47       38.51       112.77      
C           93.85       36.13       103.6       
N           91.78       36.57       104.77      
C           92.47       36.12       103.72      
C           99.83       39.37       114.5       
C           98.68       39.04       115.19      
S           99.75       38.87       112.83      
H           96.63       38.21       114.51      
H           98.5        39.32       116.22      
C           97.67       38.48       114.26      
C           98.15       38.35       113.01      
C           109.0       44.16       118.14      
N           108.7       43.98       116.86      
C           108.07      43.69       119.14      
C           107.61      43.42       116.54      
C           106.53      42.98       117.45      
C           105.47      42.44       116.58      
C           105.99      42.7        115.2       
N           107.27      43.23       115.28      
C           104.25      41.84       116.92      
C           103.45      41.96       118.24      
N           102.27      41.23       118.11      
C           102.13      40.79       116.83      
C           103.27      40.58       114.82      
C           103.28      41.09       116.1       
C           106.84      43.14       118.78      
O           103.61      42.69       119.24      
O           105.42      42.5        114.11      
C           101.38      40.98       119.25      
C           108.03      43.24       114.02      
H           107.75      42.36       113.43      
H           108.03      44.1988     113.50154   
H           109.02      43.02       114.28      
H           101.3       39.97       119.42      
H           100.37684   41.39069    119.13555   
H           101.79      41.55       120.06      
H           102.22      39.82       113.22      
H           104.14      40.56       114.14      
H           106.05      42.88       119.51      
H           108.32      43.88       120.19      
C           102.17      40.11       114.28      
N           101.09      40.14       116.42      
C           101.02      39.96       115.06      
C           112.69      45.7        118.23      
C           112.33      45.44       119.49      
S           111.36      45.15       117.14      
H           110.43      44.88       120.58      
H           112.94      45.49       120.33      
C           110.89      45.11       119.59      
C           110.3       44.77       118.42      
H           44.64       18.44       11.06       
H           113.45      46.47       117.95      
