392

C           58.04       18.14       24.88       
N           58.89       17.1        24.73       
C           57.01       18.24       23.97       
C           58.67       16.32       23.69       
C           57.68       16.33       22.67       
C           57.91       15.19       21.73       
C           59.04       14.39       22.45       
N           59.49       15.2        23.5        
C           57.29       14.71       20.58       
C           55.88       15.17       20.14       
N           55.49       14.63       18.92       
C           56.49       13.7        18.6        
C           58.62       12.84       19.19       
C           57.6        13.74       19.49       
C           56.86       17.48       22.85       
O           55.24       15.97       20.76       
O           59.52       13.33       22.16       
C           54.5        15.26       18.06       
C           60.76       14.91       24.13       
H           61.21       13.93       23.85       
H           61.48961    15.61681    23.73479    
H           60.62       15.08       25.2        
H           54.13       14.49       17.44       
H           54.89243    16.03058    17.39644    
H           53.78       15.62       18.79       
H           59.14       11.16       17.87       
H           59.49       12.79       19.77       
H           55.95       17.67       22.21       
H           56.31       19.01       24.12       
C           58.4        11.98       18.06       
N           56.28       13.0        17.56       
C           57.24       12.11       17.25       
C           58.25       19.74       28.42       
C           57.73       20.69       27.61       
S           58.56       18.25       27.52       
H           57.31       20.96       25.41       
H           57.54       21.68       27.9        
C           57.71       20.32       26.21       
C           58.14       18.99       26.02       
C           61.49       19.26       38.81       
N           61.03       20.37       38.28       
C           61.44       18.03       38.13       
C           60.33       20.27       37.15       
C           60.08       19.12       36.35       
C           59.42       19.57       35.1        
C           59.08       21.03       35.49       
N           59.75       21.35       36.62       
C           59.07       18.96       33.91       
C           59.31       17.49       33.62       
N           59.04       17.25       32.3        
C           58.76       18.44       31.64       
C           58.58       20.8        31.95       
C           58.76       19.48       32.54       
C           60.65       17.99       36.95       
O           59.68       16.63       34.42       
O           58.44       21.81       34.89       
C           58.75       15.92       31.76       
C           59.97       22.64       37.17       
H           59.95       22.63       38.24       
H           60.95701    22.99642    36.87527    
H           59.1        23.19       36.8        
H           59.0        15.78       30.68       
H           57.68675    15.71421    31.88347    
H           59.4        15.27       32.29       
H           58.15       21.85       30.17       
H           58.54       21.69       32.57       
H           60.56       17.01       36.48       
H           61.79       17.09       38.49       
C           58.25       20.91       30.6        
N           58.74       18.54       30.31       
C           58.4        19.76       29.86       
C           63.34       19.1        42.19       
C           63.03       20.38       41.92       
S           62.98       18.07       40.82       
H           61.96       21.49       40.38       
H           63.07       21.19       42.66       
C           62.34       20.53       40.7        
C           62.12       19.39       40.07       
C           66.9        13.61       50.94       
N           66.57       14.89       51.15       
C           66.79       12.98       49.79       
C           66.08       15.53       50.1        
C           65.93       15.02       48.78       
C           65.45       16.09       47.92       
C           65.25       17.23       48.85       
N           65.67       16.87       50.15       
C           65.19       16.15       46.54       
C           65.11       14.95       45.67       
N           64.94       15.37       44.37       
C           64.74       16.73       44.36       
C           64.85       18.65       45.6        
C           64.99       17.21       45.63       
C           66.32       13.64       48.66       
O           65.12       13.82       45.88       
O           64.71       18.31       48.7        
C           64.86       14.47       43.22       
C           65.81       17.81       51.29       
H           65.83       17.27       52.22       
H           66.6753     18.46618    51.19626    
H           64.88       18.38       51.18       
H           65.49       13.57       43.35       
H           63.85478    14.28152    42.84304    
H           65.39       15.04       42.43       
H           64.16       20.37       44.52       
H           65.11       19.24       46.47       
H           66.22       13.11       47.76       
H           67.03       11.89       49.7        
C           64.35       19.28       44.45       
N           64.35       17.32       43.22       
C           64.07       18.62       43.31       
C           68.57       12.48       54.23       
C           68.09       11.32       53.68       
S           68.24       13.89       53.23       
H           67.09       10.83       51.84       
H           68.3        10.31       54.11       
C           67.5        11.59       52.42       
C           67.37       12.92       52.13       
C           71.9        12.96       64.7        
N           71.93       14.04       63.9        
C           71.49       11.74       64.13       
C           71.6        13.84       62.62       
C           71.12       12.59       61.97       
C           70.95       12.92       60.52       
C           71.52       14.35       60.4        
N           71.79       14.84       61.64       
C           70.57       12.19       59.42       
C           70.45       10.71       59.41       
N           70.21       10.38       58.06       
C           69.98       11.56       57.32       
C           69.79       13.92       57.5        
C           70.14       12.71       58.13       
C           71.05       11.54       62.84       
O           70.59       9.78        60.27       
O           71.73       14.95       59.44       
C           69.98       8.99        57.66       
C           72.24       16.21       61.95       
H           72.84       16.62       61.16       
H           71.43092    16.89244    62.21031    
H           72.89       16.01       62.72       
H           69.86       8.33        58.51       
H           69.05537    8.89962     57.08993    
H           70.93       8.67        57.16       
H           69.03       14.73       55.69       
H           69.76       14.87       57.96       
H           70.55       10.66       62.59       
H           71.46       10.92       64.89       
C           69.28       13.82       56.2        
N           69.65       11.49       56.04       
C           69.2        12.64       55.5        
C           73.39       14.4        67.95       
C           72.93       13.15       68.34       
S           72.94       14.83       66.31       
H           72.0        11.45       67.29       
H           73.05       12.64       69.3        
C           72.41       12.5        67.18       
C           72.31       13.28       66.01       
C           77.72       21.42       75.37       
N           77.94       21.55       74.05       
C           76.87       20.43       75.83       
C           77.42       20.68       73.24       
C           76.65       19.5        73.59       
C           76.27       18.83       72.36       
C           77.0        19.66       71.3        
N           77.45       20.8        71.84       
C           75.56       17.7        71.96       
C           75.1        16.67       72.98       
N           74.4        15.76       72.24       
C           74.3        16.14       70.94       
C           75.26       17.36       69.11       
C           75.13       17.22       70.56       
C           76.34       19.46       74.99       
O           75.5        16.42       74.14       
O           76.94       19.58       70.1        
C           73.73       14.66       72.84       
C           77.95       21.92       71.07       
H           77.8        22.86       71.62       
H           79.03725    21.85562    71.02708    
H           77.38       21.94       70.16       
H           73.74       13.72       72.24       
H           72.73162    14.87548    73.22068    
H           74.41       14.32       73.64       
H           74.84       16.56       67.21       
H           75.74       18.24       68.72       
H           75.64       18.79       75.4        
H           76.72       20.27       76.87       
C           74.63       16.47       68.26       
N           73.65       15.32       70.1        
C           73.92       15.42       68.8        
C           78.98       23.93       78.12       
C           79.76       24.09       77.03       
S           77.68       22.82       77.84       
H           79.96       22.99       75.06       
H           80.53       24.83       77.06       
C           79.39       23.12       75.97       
C           78.28       22.4        76.24       
C           79.59       30.27       87.26       
N           78.64       29.28       87.22       
C           80.31       30.6        86.18       
C           78.64       28.62       86.08       
C           79.48       28.74       84.91       
C           79.24       27.61       83.98       
C           78.09       26.86       84.7        
N           77.81       27.52       85.89       
C           79.65       27.17       82.72       
C           80.94       27.64       82.12       
N           81.22       26.97       80.97       
C           80.16       26.14       80.68       
C           78.05       25.32       81.55       
C           79.16       26.17       81.77       
C           80.27       29.9        84.97       
O           81.63       28.58       82.37       
O           77.51       25.84       84.49       
C           82.37       27.29       80.2        
C           76.54       27.34       86.61       
H           75.81       27.12       85.77       
H           76.58126    26.64541    87.44901    
H           76.18       28.31       86.94       
H           82.55       28.35       79.98       
H           83.29695    26.90316    80.62333    
H           82.28       26.81       79.27       
H           77.1        23.96       80.14       
H           77.18       25.4        82.25       
H           80.9        30.18       84.09       
H           81.08       31.34       86.28       
C           78.03       24.51       80.4        
N           80.09       25.42       79.56       
C           79.04       24.69       79.37       
C           80.46       32.16       90.56       
C           79.24       31.51       90.77       
S           81.2        31.59       89.06       
H           77.74       30.5        89.53       
H           78.64       31.6        91.66       
C           78.73       30.96       89.54       
C           79.65       30.95       88.53       
C           87.47       36.91       97.57       
N           86.15       37.04       97.79       
C           88.01       36.34       96.44       
C           85.32       36.63       96.81       
C           85.76       36.03       95.58       
C           84.59       35.6        94.85       
C           83.46       36.01       95.7        
N           83.92       36.57       96.87       
C           84.34       35.05       93.58       
C           85.33       35.11       92.38       
N           84.7        34.47       91.3        
C           83.42       33.98       91.68       
C           81.99       33.8        93.63       
C           83.18       34.32       93.07       
C           87.16       35.93       95.41       
O           86.42       35.66       92.34       
O           82.26       36.14       95.44       
C           85.17       34.52       89.95       
C           83.11       37.37       97.79       
H           82.34       37.88       97.22       
H           82.54785    36.77865    98.51276    
H           83.68       38.19       98.36       
H           84.27       34.75       89.35       
H           85.63505    33.56843    89.69243    
H           85.83       35.39       89.82       
H           80.19       32.9        93.22       
H           81.79       33.91       94.67       
H           87.51       35.45       94.52       
H           89.08       36.13       96.38       
C           81.1        33.14       92.74       
N           82.49       33.38       90.89       
C           81.3        33.0        91.4        
C           89.32       37.49       100.87      
C           90.16       37.83       99.82       
S           87.72       37.18       100.25      
H           90.27       37.42       97.72       
H           91.18       38.1        99.87       
C           89.67       37.5        98.6        
C           88.32       37.27       98.65       
C           90.15       38.57       111.91      
N           91.16       38.53       111.08      
C           88.91       38.53       111.3       
C           91.08       38.34       109.78      
C           89.82       38.1        109.09      
C           90.19       38.01       107.67      
C           91.68       38.27       107.63      
N           92.18       38.31       108.93      
C           89.45       37.85       106.53      
C           87.92       37.73       106.57      
N           87.45       37.54       105.32      
C           88.5        37.5        104.42      
C           90.84       37.67       104.21      
C           89.73       37.68       105.08      
C           88.74       38.17       110.0       
O           87.18       37.8        107.58      
O           92.43       38.19       106.67      
C           86.05       37.31       104.91      
C           93.63       38.37       109.22      
H           93.93       39.43       109.31      
H           94.08021    37.72282    109.9727    
H           94.19       38.06       108.33      
H           86.01       36.54       104.18      
H           85.56278    38.22268    104.56689   
H           85.49       37.03       105.81      
H           91.61       37.57       102.21      
H           91.86       37.76       104.58      
H           87.75       38.16       109.69      
H           88.07       38.61       112.0       
C           90.72       37.52       102.85      
N           88.39       37.48       103.1       
C           89.51       37.6        102.28      
C           91.71       39.54       115.21      
C           90.39       39.41       115.49      
S           92.15       38.78       113.69      
H           88.62       39.12       114.3       
H           89.87       39.91       116.27      
C           89.7        38.94       114.39      
C           90.44       38.76       113.3       
C           98.8        45.41       121.75      
N           98.99       45.29       120.47      
C           97.65       44.91       122.33      
C           98.12       44.56       119.79      
C           96.9        44.0        120.13      
C           96.3        43.28       118.97      
C           97.36       43.62       117.88      
N           98.41       44.27       118.48      
C           95.08       42.52       118.78      
C           94.0        42.51       119.84      
N           92.94       41.83       119.33      
C           93.18       41.37       118.02      
C           94.87       41.32       116.31      
C           94.52       41.71       117.65      
C           96.71       44.19       121.51      
O           94.01       42.85       120.98      
O           97.31       43.43       116.62      
C           91.62       42.32       119.74      
C           99.58       44.75       117.72      
H           100.48      44.34       118.08      
H           99.58709    45.82771    117.55693   
H           99.44       44.39       116.74      
H           91.16       42.82       118.92      
H           91.00227    41.52577    120.15918   
H           91.8        43.09       120.48      
H           94.39       40.23       114.54      
H           95.81       41.61       115.97      
H           95.9        43.67       122.07      
H           97.44       45.11       123.4       
C           94.03       40.54       115.54      
N           92.35       40.61       117.24      
C           92.78       40.22       116.04      
C           101.51      48.1        122.72      
C           101.1       47.54       123.89      
S           100.71      47.4        121.36      
H           99.52       46.13       124.41      
H           101.48      47.89       124.87      
C           100.01      46.64       123.68      
C           99.76       46.36       122.36      
C           108.89      56.4        123.1       
N           108.55      55.89       121.88      
C           108.64      55.68       124.2       
C           107.8       54.81       121.83      
C           107.3       54.12       122.94      
C           106.41      53.08       122.44      
C           106.64      53.09       121.0       
N           107.44      54.17       120.66      
C           105.64      52.06       123.06      
C           105.87      51.67       124.54      
N           104.91      50.64       124.8       
C           104.08      50.33       123.72      
C           103.97      50.64       121.43      
C           104.62      51.04       122.59      
C           107.76      54.65       124.17      
O           106.78      51.97       125.28      
O           106.15      52.41       120.01      
C           104.76      50.08       126.12      
C           108.26      54.23       119.52      
H           108.45      53.2        119.23      
H           107.83196   54.73922    118.65654   
H           109.24      54.64       119.81      
H           104.71      48.99       125.96      
H           103.95608   50.53047    126.70215   
H           105.67      50.27       126.69      
H           102.27      49.45       120.59      
H           104.18      51.09       120.53      
H           107.44      54.23       125.12      
H           108.81      56.22       125.17      
C           102.95      49.63       121.49      
N           103.13      49.41       123.75      
C           102.6       49.06       122.63      
C           111.02      59.71       122.78      
C           111.43      59.13       123.92      
S           110.0       58.64       121.82      
H           111.01      57.24       125.05      
H           112.1       59.59       124.65      
C           110.83      57.81       124.1       
C           109.89      57.49       123.13      
H           57.21       11.46       16.39       
H           111.16      60.8        122.57      
