392

C           55.02       22.84       21.64       
N           56.19       22.27       21.67       
C           54.29       23.03       20.5        
C           56.64       21.76       20.55       
C           56.0        21.91       19.26       
C           56.91       21.24       18.27       
C           57.85       20.42       19.15       
N           57.7        20.87       20.46       
C           56.91       21.18       16.85       
C           56.04       22.06       15.97       
N           56.32       21.77       14.65       
C           57.29       20.88       14.49       
C           58.65       19.35       15.69       
C           57.66       20.35       15.79       
C           54.78       22.64       19.26       
O           55.37       22.98       16.35       
O           58.67       19.49       18.83       
C           55.69       22.52       13.55       
C           58.38       20.3        21.56       
H           58.46       19.22       21.46       
H           59.40446    20.63437    21.72363    
H           57.74       20.47       22.39       
H           55.19       21.95       12.78       
H           56.36906    23.24106    13.09496    
H           54.89       23.03       13.95       
H           59.49       17.88       14.29       
H           58.87       18.78       16.55       
H           54.22       22.81       18.43       
H           53.33       23.53       20.6        
C           59.12       18.86       14.35       
N           57.7        20.47       13.37       
C           58.54       19.42       13.22       
C           54.99       24.34       25.29       
C           53.74       24.5        24.8        
S           56.01       23.53       24.1        
H           52.67       24.05       22.88       
H           52.96       24.88       25.37       
C           53.59       24.03       23.46       
C           54.72       23.44       22.93       
C           59.33       27.19       35.24       
N           60.02       27.39       34.08       
C           58.02       26.73       35.21       
C           59.36       27.19       32.92       
C           58.01       26.76       32.75       
C           57.87       26.48       31.28       
C           59.22       26.86       30.7        
N           60.01       27.24       31.71       
C           56.87       25.97       30.51       
C           55.42       25.66       31.01       
N           54.63       25.4        29.92       
C           55.35       25.37       28.72       
C           57.48       25.59       27.89       
C           56.67       25.67       29.04       
C           57.37       26.43       33.93       
O           54.89       25.87       32.08       
O           59.64       26.84       29.51       
C           53.36       24.8        30.07       
C           61.29       28.01       31.66       
H           61.31       28.8        32.41       
H           62.12302    27.30736    31.68173    
H           61.24       28.54       30.75       
H           53.42       23.8        29.51       
H           52.52489    25.40864    29.72322    
H           53.22       24.47       31.1        
H           57.57       25.17       25.82       
H           58.54       25.68       27.87       
H           56.34       26.12       34.01       
H           57.6        26.59       36.12       
C           56.91       25.27       26.64       
N           54.85       24.96       27.64       
C           55.57       24.84       26.51       
C           61.3        27.09       38.68       
C           62.06       27.8        37.79       
S           59.84       26.66       37.99       
H           61.82       28.41       35.53       
H           63.02       28.31       38.06       
C           61.4        28.0        36.48       
C           60.2        27.33       36.44       
C           64.11       23.15       48.65       
N           64.84       24.02       48.07       
C           62.83       22.91       48.23       
C           64.52       24.33       46.85       
C           63.26       24.1        46.14       
C           63.27       24.8        44.85       
C           64.66       25.48       44.9        
N           65.2        25.24       46.09       
C           62.33       24.95       43.87       
C           60.89       24.49       43.95       
N           60.19       25.0        42.79       
C           61.1        25.54       41.9        
C           63.28       26.35       41.78       
C           62.35       25.62       42.52       
C           62.44       23.29       46.95       
O           60.3        23.96       44.86       
O           65.26       26.22       44.02       
C           58.72       25.05       42.65       
C           66.48       25.84       46.58       
H           66.46       25.72       47.69       
H           67.37682    25.40539    46.13849    
H           66.4        26.9        46.41       
H           58.46       26.1        42.41       
H           58.28904    24.36764    41.91736    
H           58.33       24.82       43.62       
H           63.68       27.46       40.0        
H           64.28       26.55       42.13       
H           61.42       23.13       46.66       
H           62.17       22.18       48.68       
C           62.86       26.87       40.54       
N           60.76       25.98       40.69       
C           61.62       26.64       39.99       
C           66.17       22.42       51.76       
C           65.03       21.69       51.93       
S           66.1        23.43       50.35       
H           63.17       21.3        50.76       
H           64.79       21.16       52.83       
C           64.07       21.89       50.85       
C           64.58       22.79       49.98       
C           74.37       21.96       59.11       
N           74.7        22.2        57.83       
C           73.11       21.58       59.53       
C           73.67       22.15       56.97       
C           72.31       21.95       57.24       
C           71.55       22.16       55.95       
C           72.65       22.51       54.9        
N           73.82       22.41       55.6        
C           70.22       21.99       55.56       
C           69.29       21.19       56.49       
N           68.01       21.3        55.95       
C           68.14       21.79       54.69       
C           69.57       22.92       53.13       
C           69.39       22.28       54.34       
C           72.02       21.58       58.54       
O           69.45       20.47       57.48       
O           72.59       22.73       53.66       
C           66.89       20.52       56.37       
C           75.07       22.85       55.03       
H           75.67       23.44       55.75       
H           75.6032     22.00399    54.59633    
H           74.92       23.49       54.12       
H           67.15       19.61       57.0        
H           66.13123    21.15347    56.82944    
H           66.42       20.14       55.44       
H           68.6        23.68       51.41       
H           70.49       23.41       52.78       
H           71.01       21.41       58.83       
H           72.83       21.37       60.58       
C           68.47       23.06       52.3        
N           67.1        21.79       53.84       
C           67.25       22.45       52.67       
C           77.0        22.41       62.01       
C           77.66       22.17       60.85       
S           75.28       22.35       61.73       
H           77.25       21.67       58.74       
H           78.76       22.37       60.74       
C           76.83       21.84       59.74       
C           75.5        21.93       60.03       
C           78.93       28.31       71.26       
N           79.49       28.74       70.1        
C           78.34       27.11       71.33       
C           79.48       27.96       69.01       
C           78.74       26.79       68.93       
C           78.72       26.28       67.57       
C           79.63       27.26       66.88       
N           79.96       28.26       67.78       
C           77.97       25.22       66.87       
C           76.74       24.58       67.5        
N           76.13       23.84       66.5        
C           76.87       23.83       65.34       
C           78.95       24.54       64.38       
C           78.06       24.59       65.52       
C           78.34       26.29       70.2        
O           76.23       24.89       68.63       
O           79.88       27.36       65.65       
C           74.84       23.17       66.71       
C           80.59       29.49       67.43       
H           80.72       30.19       68.31       
H           81.6061     29.42514    67.04086    
H           80.01       29.94       66.66       
H           74.74       22.21       66.22       
H           74.00468    23.82683    66.46726    
H           74.78       22.84       67.74       
H           79.3        23.77       62.42       
H           79.83       25.1        64.46       
H           77.97       25.34       70.31       
H           78.01       26.75       72.26       
C           78.64       23.78       63.26       
N           76.66       23.01       64.26       
C           77.5        23.09       63.22       
C           79.46       30.12       74.64       
C           80.03       30.85       73.76       
S           78.47       28.83       73.96       
H           80.47       30.72       71.59       
H           80.67       31.66       73.87       
C           79.9        30.33       72.42       
C           79.08       29.23       72.36       
C           81.5        30.56       85.44       
N           80.22       30.44       85.12       
C           82.53       30.89       84.53       
C           79.99       30.57       83.84       
C           80.91       30.92       82.78       
C           80.1        30.76       81.52       
C           78.65       30.44       81.9        
N           78.69       30.4        83.27       
C           80.47       30.86       80.2        
C           81.79       31.58       79.73       
N           81.81       31.56       78.39       
C           80.65       31.06       77.83       
C           78.78       29.9        78.38       
C           79.86       30.51       78.86       
C           82.27       31.04       83.22       
O           82.69       32.04       80.39       
O           77.61       30.4        81.19       
C           82.9        32.11       77.54       
C           77.45       30.23       84.07       
H           76.56       30.62       83.61       
H           77.23571    29.20853    84.3843     
H           77.66       30.71       85.02       
H           83.47       32.86       78.02       
H           83.58407    31.29194    77.31433    
H           82.41       32.5        76.66       
H           77.64       29.4        76.73       
H           78.01       29.53       79.04       
H           83.04       31.29       82.51       
H           83.53       31.21       84.88       
C           78.56       29.77       76.99       
N           80.6        30.88       76.51       
C           79.56       30.19       76.07       
C           82.89       30.76       89.06       
C           81.57       30.84       89.17       
S           83.42       30.5        87.43       
H           79.9        30.56       87.64       
H           81.12       31.07       90.1        
C           80.92       30.63       87.88       
C           81.79       30.58       86.88       
C           91.11       31.96       96.36       
N           89.96       32.61       96.53       
C           91.26       31.07       95.36       
C           88.98       32.51       95.62       
C           89.04       31.67       94.42       
C           87.79       31.88       93.74       
C           86.99       32.83       94.66       
N           87.77       33.17       95.74       
C           87.23       31.36       92.59       
C           88.13       30.73       91.6        
N           87.46       30.61       90.43       
C           86.07       30.87       90.65       
C           84.57       31.57       92.34       
C           85.91       31.31       91.99       
C           90.26       30.92       94.4        
O           89.37       30.56       91.64       
O           85.99       33.47       94.44       
C           88.06       30.34       89.14       
C           87.47       34.19       96.77       
H           87.31       35.15       96.24       
H           86.62037    33.94011    97.40544    
H           88.36       34.41       97.28       
H           87.64       30.99       88.41       
H           87.90183    29.30468    88.83803    
H           89.13       30.46       89.27       
H           82.56       31.73       91.64       
H           84.43       31.87       93.32       
H           90.5        30.21       93.7        
H           92.14       30.43       95.38       
C           83.57       31.34       91.42       
N           85.12       30.63       89.74       
C           83.83       30.85       90.1        
C           93.33       32.56       99.53       
C           94.12       32.08       98.56       
S           91.71       32.73       98.95       
H           93.89       31.29       96.48       
H           95.15       31.88       98.77       
C           93.45       31.8        97.36       
C           92.1        32.13       97.39       
C           94.75       37.41       109.43      
N           95.81       36.67       108.98      
C           93.57       37.55       108.75      
C           95.68       36.12       107.8       
C           94.49       36.13       106.99      
C           94.71       35.27       105.86      
C           96.15       34.87       106.04      
N           96.67       35.39       107.19      
C           93.9        34.86       104.79      
C           92.41       35.23       104.75      
N           91.91       34.78       103.52      
C           92.92       34.18       102.75      
C           95.21       33.7        102.68      
C           94.19       34.2        103.44      
C           93.43       36.92       107.5       
O           91.6        35.65       105.55      
O           96.91       34.23       105.26      
C           90.62       35.13       103.0       
C           98.02       35.33       107.65      
H           98.38       36.28       108.06      
H           98.23267    34.47221    108.28802   
H           98.56       35.3        106.71      
H           90.36       34.29       102.32      
H           90.56959    36.09509    102.49585   
H           89.97       35.23       103.87      
H           95.8        32.83       100.87      
H           96.24       33.72       103.03      
H           92.5        36.97       106.99      
H           92.73       38.15       109.06      
C           94.97       33.22       101.38      
N           92.66       33.68       101.56      
C           93.68       33.11       100.9       
C           95.53       38.43       113.02      
C           94.64       39.28       112.5       
S           96.01       37.2        111.86      
H           93.41       39.43       110.58      
H           94.32       40.19       113.05      
C           94.12       38.92       111.23      
C           94.9        37.93       110.74      
C           100.11      39.0        123.06      
N           100.16      37.86       122.37      
C           99.28       39.98       122.63      
C           99.5        37.85       121.22      
C           98.72       38.85       120.62      
C           98.32       38.39       119.25      
C           98.81       36.96       119.28      
N           99.54       36.69       120.43      
C           97.72       38.97       118.2       
C           97.23       40.39       118.16      
N           96.48       40.6        117.01      
C           96.6        39.54       116.15      
C           97.35       37.33       116.06      
C           97.32       38.5        116.81      
C           98.49       39.93       121.5       
O           97.21       41.18       119.05      
O           98.68       36.04       118.5       
C           95.63       41.83       116.79      
C           100.25      35.46       120.77      
H           100.13      35.23       121.85      
H           101.27309   35.48208    120.39462   
H           99.69       34.74       120.19      
H           95.74       42.3        115.76      
H           94.57661    41.58089    116.91811   
H           95.89       42.61       117.52      
H           96.7        36.35       114.33      
H           97.87       36.5        116.39      
H           97.84       40.68       121.2       
H           99.14       40.83       123.28      
C           96.74       37.28       114.83      
N           96.07       39.52       115.0       
C           96.16       38.39       114.31      
C           102.16      39.8        126.36      
C           102.3       38.49       126.13      
S           101.02      40.58       125.26      
H           101.57      36.97       124.66      
H           102.85      37.79       126.76      
C           101.67      38.03       124.89      
C           100.99      39.07       124.3       
C           109.27      45.78       132.39      
N           108.33      46.41       131.72      
C           109.56      44.45       132.21      
C           107.37      45.6        131.13      
C           107.51      44.16       130.93      
C           106.33      43.73       130.13      
C           105.64      45.06       129.84      
N           106.29      46.1        130.47      
C           105.85      42.47       129.61      
C           106.72      41.24       129.65      
N           106.08      40.27       128.87      
C           104.82      40.66       128.6       
C           103.49      42.64       128.42      
C           104.68      42.06       128.89      
C           108.7       43.66       131.49      
O           107.8       41.11       130.14      
O           104.64      45.41       129.27      
C           106.69      39.12       128.2       
C           106.17      47.45       129.99      
H           106.06      47.44       128.88      
H           105.24266   47.86951    130.38007   
H           107.04      48.07       130.3       
H           106.36      39.03       127.18      
H           106.59932   38.19229    128.765     
H           107.78      39.37       128.1       
H           101.97      42.46       127.1       
H           103.27      43.7        128.56      
H           108.91      42.61       131.34      
H           110.49      44.13       132.47      
C           102.7       41.87       127.62      
N           104.01      39.95       127.84      
C           102.95      40.57       127.37      
C           112.04      47.68       134.5       
C           110.95      48.52       134.35      
S           111.75      46.17       133.75      
H           108.97      48.42       133.51      
H           110.77      49.5        134.78      
C           109.93      47.91       133.63      
C           110.18      46.63       133.18      
H           58.86       19.25       12.2        
H           113.04      47.97       134.79      
