392

C           118.19      34.44       26.52       
N           118.16      34.45       25.28       
C           118.95      33.53       27.22       
C           119.04      33.65       24.59       
C           120.05      32.78       25.13       
C           120.82      32.16       24.08       
C           120.26      32.76       22.84       
N           119.14      33.58       23.17       
C           121.89      31.22       24.07       
C           122.51      30.76       25.39       
N           123.52      29.91       25.18       
C           123.66      29.77       23.76       
C           122.95      30.49       21.6        
C           122.72      30.55       23.02       
C           119.91      32.77       26.54       
O           122.18      30.93       26.57       
O           120.65      32.65       21.66       
C           124.25      29.19       26.23       
C           118.19      34.19       22.27       
H           118.7       34.39       21.3        
H           117.39565   33.52683    21.92748    
H           117.86      35.1        22.76       
H           125.31      29.21       26.08       
H           123.93424   28.17956    26.48963    
H           124.05      29.73       27.13       
H           124.05      29.39       20.0        
H           122.32      31.12       21.0        
H           120.51      32.2        27.24       
H           118.94      33.5        28.31       
C           123.81      29.49       21.07       
N           124.61      28.91       23.27       
C           124.58      28.75       21.94       
C           115.05      36.49       27.63       
C           115.83      36.29       28.76       
S           115.76      35.63       26.28       
H           117.69      35.33       29.2        
H           115.56      36.76       29.77       
C           116.99      35.53       28.47       
C           117.15      35.22       27.18       
C           104.6       40.19       26.54       
N           105.12      40.04       27.78       
C           105.31      39.97       25.4        
C           106.32      39.53       27.88       
C           107.18      39.24       26.78       
C           108.45      38.67       27.31       
C           108.1       38.69       28.82       
N           106.93      39.31       29.05       
C           109.68      38.27       26.76       
C           109.87      38.15       25.24       
N           111.16      37.61       24.99       
C           111.86      37.52       26.18       
C           111.52      37.46       28.54       
C           110.94      37.76       27.29       
C           106.61      39.57       25.53       
O           109.06      38.28       24.27       
O           108.76      38.26       29.72       
C           111.66      37.43       23.62       
C           106.32      39.63       30.36       
H           106.22      38.7        30.98       
H           106.8797    40.40933    30.87719    
H           105.31      40.08       30.26       
H           112.18      36.45       23.57       
H           112.28113   38.24112    23.24002    
H           110.74      37.24       23.02       
H           113.19      36.93       29.71       
H           110.92      37.58       29.46       
H           107.15      39.31       24.64       
H           104.98      40.31       24.43       
C           112.85      37.1        28.66       
N           113.18      37.13       26.24       
C           113.65      36.94       27.49       
C           100.78      41.08       27.28       
C           100.91      40.74       25.95       
S           102.32      40.93       28.04       
H           102.61      40.43       24.48       
H           100.0       40.76       25.35       
C           102.26      40.64       25.53       
C           103.15      40.49       26.57       
C           91.01       42.25       32.25       
N           92.02       42.79       32.94       
C           91.12       41.36       31.21       
C           93.18       42.7        32.33       
C           93.43       42.02       31.09       
C           94.84       42.29       30.72       
C           95.39       43.13       31.88       
N           94.33       43.39       32.7        
C           95.61       41.96       29.65       
C           95.07       41.53       28.31       
N           96.04       41.1        27.51       
C           97.24       41.37       28.06       
C           98.27       42.18       30.04       
C           97.06       41.97       29.38       
C           92.37       41.26       30.58       
O           93.94       41.28       28.02       
O           96.47       43.68       32.01       
C           95.82       40.39       26.25       
C           94.53       44.42       33.77       
H           93.69       44.98       33.99       
H           94.7772     43.99831    34.74425    
H           95.28       45.1        33.38       
H           95.02       39.72       26.33       
H           95.67104    41.11351    25.44847    
H           96.64       39.69       26.01       
H           100.45      42.08       29.87       
H           98.39       42.43       31.07       
H           92.37       40.63       29.75       
H           90.19       40.89       30.73       
C           99.51       41.99       29.32       
N           98.38       41.09       27.5        
C           99.56       41.42       28.07       
C           88.04       42.99       34.68       
C           87.48       42.58       33.49       
S           89.77       43.01       34.6        
H           88.25       41.88       31.51       
H           86.42       42.47       33.42       
C           88.49       42.21       32.51       
C           89.75       42.28       32.98       
C           82.86       47.9        42.96       
N           83.88       46.98       43.24       
C           82.19       47.73       41.73       
C           84.26       46.11       42.33       
C           83.77       45.98       41.02       
C           84.66       44.99       40.3        
C           85.61       44.49       41.35       
N           85.37       45.22       42.44       
C           84.68       44.65       39.0        
C           83.57       44.77       38.01       
N           84.0        44.38       36.73       
C           85.34       44.02       36.83       
C           87.18       43.78       38.26       
C           85.79       44.08       38.2        
C           82.6        46.74       40.82       
O           82.46       45.23       38.26       
O           86.47       43.61       41.19       
C           83.37       44.97       35.5        
C           86.5        45.47       43.34       
H           86.65       46.52       43.35       
H           86.26467    45.20699    44.37128    
H           87.32       44.97       42.91       
H           84.12       44.92       34.69       
H           82.45829    44.43287    35.2385     
H           83.26       46.05       35.82       
H           88.98       43.53       37.16       
H           87.69       43.8        39.18       
H           82.08       46.63       39.88       
H           81.29       48.32       41.53       
C           87.93       43.59       37.05       
N           86.02       43.63       35.7        
C           87.28       43.36       35.87       
C           83.08       50.66       45.68       
C           81.96       50.9        45.02       
S           83.99       49.34       44.98       
H           80.77       49.79       43.44       
H           81.19       51.61       45.28       
C           81.72       49.92       44.01       
C           82.69       48.99       43.93       
C           87.56       58.49       52.04       
N           88.1        57.23       51.98       
C           86.35       58.76       51.38       
C           87.54       56.38       51.18       
C           86.39       56.5        50.37       
C           86.08       55.21       49.76       
C           87.38       54.49       50.06       
N           88.12       55.23       50.92       
C           85.07       54.76       48.97       
C           83.72       55.48       48.8        
N           82.92       54.81       47.91       
C           83.61       53.61       47.6        
C           85.61       52.47       47.67       
C           84.86       53.56       48.1        
C           85.82       57.8        50.54       
O           83.29       56.5        49.34       
O           87.73       53.32       49.83       
C           81.72       55.31       47.28       
C           89.14       54.66       51.82       
H           88.84       53.62       51.8        
H           90.14215    54.73988    51.3988     
H           88.99       55.01       52.9        
H           81.04       54.49       47.11       
H           81.98873    55.79088    46.33945    
H           81.18       56.02       47.93       
H           85.61       50.7        46.49       
H           86.6        52.4        48.05       
H           84.9        58.14       50.04       
H           85.82       59.74       51.43       
C           85.07       51.54       46.78       
N           83.04       52.75       46.76       
C           83.77       51.66       46.47       
C           89.76       60.22       54.64       
C           88.9        61.19       54.21       
S           89.55       58.63       53.94       
H           87.45       61.34       52.67       
H           88.99       62.2        54.54       
C           88.05       60.68       53.23       
C           88.3        59.37       52.9        
C           95.71       60.26       63.92       
N           96.18       59.57       62.85       
C           94.68       61.15       63.76       
C           95.57       59.69       61.71       
C           94.37       60.52       61.48       
C           93.96       60.25       60.08       
C           94.87       59.12       59.6        
N           95.75       58.82       60.63       
C           92.93       60.73       59.3        
C           92.06       61.93       59.68       
N           91.03       62.17       58.8        
C           91.21       61.24       57.78       
C           92.68       59.62       56.86       
C           92.4        60.44       57.94       
C           93.97       61.26       62.61       
O           92.11       62.68       60.63       
O           94.88       58.56       58.49       
C           90.2        63.33       58.86       
C           96.59       57.63       60.53       
H           96.09       56.78       60.03       
H           97.55637    57.85817    60.08037    
H           96.7        57.28       61.56       
H           90.4        64.0        57.98       
H           89.16558    62.98757    58.88854    
H           90.37       63.84       59.83       
H           91.96       59.0        54.86       
H           93.47       58.87       56.79       
H           93.21       61.92       62.55       
H           94.47       61.88       64.58       
C           91.81       59.65       55.74       
N           90.37       61.19       56.8        
C           90.71       60.39       55.72       
C           98.66       60.44       66.3        
C           97.64       60.97       66.99       
S           98.29       59.93       64.72       
H           95.47       61.26       66.66       
H           97.73       61.19       68.05       
C           96.43       60.96       66.23       
C           96.61       60.32       65.01       
C           108.98      64.22       67.96       
N           108.82      63.09       67.22       
C           107.89      64.66       68.66       
C           107.63      62.54       67.22       
C           106.48      62.93       67.93       
C           105.35      61.99       67.61       
C           106.0       61.09       66.53       
N           107.3       61.46       66.41       
C           103.99      61.98       67.87       
C           103.34      62.7        69.05       
N           102.05      62.45       69.04       
C           101.63      61.65       68.02       
C           102.52      60.27       66.31       
C           102.83      61.25       67.31       
C           106.66      64.05       68.7        
O           103.9       63.29       69.96       
O           105.59      60.15       65.91       
C           101.18      62.79       70.17       
C           108.14      61.08       65.35       
H           108.85      61.82       65.24       
H           108.63888   60.11893    65.47472    
H           107.58      61.15       64.42       
H           100.44      62.05       70.41       
H           100.72466   63.76968    70.02512    
H           101.75      62.75       71.07       
H           101.0       59.23       65.1        
H           103.34      59.93       65.75       
H           105.8       64.58       69.14       
H           108.01      65.58       69.3        
C           101.18      59.89       65.99       
N           100.31      61.35       67.83       
C           100.09      60.5        66.74       
C           112.66      65.42       67.03       
C           112.13      66.4        67.82       
S           111.58      64.07       66.91       
H           110.13      66.63       68.92       
H           112.7       67.28       68.07       
C           110.8       66.07       68.26       
C           110.3       64.89       67.81       
C           122.41      62.03       63.23       
N           122.37      63.22       63.84       
C           121.29      61.32       62.86       
C           121.23      63.59       64.26       
C           119.93      62.92       64.14       
C           118.99      63.72       64.94       
C           119.78      64.92       65.46       
N           121.11      64.76       64.98       
C           117.62      63.62       65.09       
C           116.95      62.29       64.83       
N           115.67      62.31       65.25       
C           115.37      63.54       65.9        
C           116.16      65.72       66.18       
C           116.5       64.43       65.7        
C           120.04      61.75       63.33       
O           117.31      61.2        64.44       
O           119.38      65.85       66.16       
C           114.73      61.19       65.08       
C           122.3       65.41       65.47       
H           123.19      64.84       65.34       
H           122.53783   66.35412    64.97992    
H           122.04      65.78       66.45       
H           113.7       61.61       64.92       
H           114.79443   60.53143    65.94616    
H           114.9       60.57       64.14       
H           114.71      67.09       67.0        
H           116.98      66.43       66.26       
H           119.15      61.22       63.08       
H           121.35      60.48       62.22       
C           114.95      66.1        66.71       
N           114.19      63.89       66.31       
C           114.04      65.14       66.74       
C           125.83      60.31       62.44       
C           126.0       61.68       62.29       
S           124.21      59.91       62.77       
H           124.75      63.53       62.5        
H           126.96      62.19       62.16       
C           124.8       62.45       62.51       
C           123.75      61.62       62.81       
C           133.1       51.97       63.09       
N           133.49      53.15       62.55       
C           131.8       51.66       63.38       
C           132.48      54.04       62.46       
C           131.08      53.89       62.85       
C           130.44      55.25       62.77       
C           131.5       56.07       62.17       
N           132.65      55.38       62.01       
C           129.15      55.77       62.94       
C           127.88      54.92       63.12       
N           126.78      55.71       62.9        
C           127.2       57.04       62.73       
C           129.08      58.47       62.81       
C           128.63      57.14       62.82       
C           130.77      52.59       63.18       
O           127.85      53.75       63.27       
O           131.49      57.33       61.82       
C           125.4       55.21       63.23       
C           133.9       56.03       61.66       
H           134.59      55.39       61.21       
H           134.29901   56.49201    62.56302    
H           133.62      56.84       60.87       
H           125.11      55.53       64.18       
H           124.59861   55.52359    62.56102    
H           125.54      54.16       63.33       
H           128.62      60.51       62.6        
H           130.14      58.76       62.99       
H           129.74      52.35       63.39       
H           131.5       50.74       63.81       
C           128.19      59.49       62.66       
N           126.29      57.99       62.5        
C           126.77      59.24       62.54       
C           135.76      49.51       64.4        
C           136.34      50.35       63.48       
S           134.07      49.82       64.46       
H           135.79      51.95       62.04       
H           137.38      50.24       63.23       
C           135.48      51.22       62.75       
C           134.21      51.12       63.27       
C           139.27      41.39       71.06       
N           140.12      42.14       70.42       
C           137.89      41.64       70.97       
C           139.65      43.26       69.78       
C           138.32      43.62       69.56       
C           138.32      44.85       68.66       
C           139.78      45.1        68.37       
N           140.53      44.18       69.21       
C           137.33      45.51       68.0        
C           135.95      44.89       67.85       
N           135.22      45.8        67.14       
C           136.02      46.88       66.75       
C           138.23      47.68       66.62       
C           137.34      46.72       67.1        
C           137.43      42.77       70.19       
O           135.5       43.75       68.13       
O           140.32      45.84       67.6        
C           133.72      45.76       67.08       
C           141.99      44.07       69.02       
H           142.16      43.7        68.07       
H           142.56907   44.96756    69.23715    
H           142.34      43.34       69.67       
H           133.45      45.76       66.01       
H           133.19253   46.59285    67.54501    
H           133.23      44.82       67.41       
H           138.38      49.36       65.31       
H           139.23      47.85       67.03       
H           136.34      42.97       70.11       
H           137.19      40.88       71.24       
C           137.71      48.63       65.75       
N           135.5       47.76       65.92       
C           136.36      48.59       65.36       
C           141.8       38.82       72.52       
C           140.56      38.43       72.8        
S           141.71      40.24       71.55       
H           138.46      39.08       72.49       
H           140.42      37.68       73.58       
C           139.5       39.22       72.32       
C           139.97      40.28       71.62       
H           125.31      28.05       21.54       
H           142.56      38.77       73.36       
