392

C           110.91      9.55        21.9        
N           111.09      8.22        22.03       
C           111.81      10.29       21.12       
C           112.21      7.7         21.51       
C           113.11      8.3         20.53       
C           114.11      7.31        20.01       
C           113.64      6.01        20.65       
N           112.48      6.31        21.43       
C           115.2       7.4         19.18       
C           115.39      8.6         18.23       
N           116.62      8.44        17.58       
C           117.14      7.21        17.82       
C           116.97      5.36        19.19       
C           116.39      6.56        18.78       
C           112.85      9.68        20.45       
O           114.84      9.64        18.18       
O           114.02      4.88        20.62       
C           117.22      9.47        16.75       
C           111.71      5.23        21.89       
H           112.07      4.32        21.47       
H           111.58443   5.17419     22.9713     
H           110.66      5.35        21.47       
H           117.32      9.15        15.69       
H           118.15934   9.83607     17.16441    
H           116.61      10.33       16.81       
H           118.52      4.12        19.13       
H           116.59      4.82        19.98       
H           113.45      10.27       19.83       
H           111.71      11.28       21.12       
C           118.13      4.95        18.63       
N           118.19      6.73        17.12       
C           118.68      5.56        17.52       
C           108.22      10.53       24.48       
C           108.61      11.69       23.93       
S           109.11      9.15        23.9        
H           109.96      12.3        22.25       
H           108.05      12.65       24.19       
C           109.53      11.47       22.84       
C           109.89      10.18       22.72       
C           98.38       8.52        29.14       
N           98.98       9.7         29.38       
C           99.08       7.4         28.68       
C           100.23      9.82        28.95       
C           101.06      8.81        28.4        
C           102.36      9.46        27.99       
C           102.26      10.85       28.62       
N           100.99      10.98       29.07       
C           103.51      9.03        27.31       
C           103.81      7.57        26.92       
N           104.99      7.56        26.19       
C           105.57      8.83        26.08       
C           105.29      11.04       26.73       
C           104.74      9.75        26.77       
C           100.42      7.58        28.26       
O           103.2       6.53        27.02       
O           103.11      11.76       28.71       
C           105.61      6.38        25.62       
C           100.54      12.05       29.99       
H           101.19      12.14       30.88       
H           100.38143   12.98075    29.44534    
H           99.65       11.67       30.42       
H           106.66      6.42        25.62       
H           105.24574   6.22589     24.60429    
H           105.34      5.55        26.25       
H           106.71      12.31       25.8        
H           104.75      11.88       27.15       
H           100.97      6.84        27.7        
H           98.62       6.38        28.48       
C           106.44      11.3        25.97       
N           106.67      9.02        25.4        
C           107.13      10.32       25.34       
C           95.15       8.92        31.39       
C           94.84       7.96        30.5        
S           96.78       9.49        31.16       
H           95.76       6.98        28.79       
H           93.88       7.52        30.47       
C           95.91       7.68        29.59       
C           97.08       8.43        29.82       
C           87.73       13.38       38.28       
N           88.96       13.92       38.23       
C           87.37       12.33       37.48       
C           89.81       13.38       37.39       
C           89.57       12.28       36.48       
C           90.84       12.0        35.75       
C           91.74       13.17       36.15       
N           90.99       13.95       37.05       
C           91.19       10.98       34.84       
C           90.24       9.95        34.32       
N           90.87       9.2         33.33       
C           92.15       9.69        33.2        
C           93.76       11.1        34.16       
C           92.4        10.63       34.17       
C           88.32       11.75       36.66       
O           89.14       9.68        34.7        
O           92.8        13.53       35.73       
C           90.2        8.25        32.41       
C           91.36       15.32       37.34       
H           90.46       15.9        37.43       
H           91.93959    15.48759    38.24779    
H           91.99       15.69       36.56       
H           90.8        8.18        31.47       
H           90.2        7.22685     32.78585    
H           89.16       8.57        32.13       
H           95.72       10.83       33.18       
H           94.2        11.94       34.81       
H           87.99       10.92       36.08       
H           86.36       11.97       37.55       
C           94.7        10.49       33.23       
N           92.97       9.15        32.33       
C           94.24       9.53        32.29       
C           85.62       15.58       40.82       
C           84.83       14.49       40.36       
S           87.16       15.54       39.98       
H           85.19       12.67       39.14       
H           83.79       14.32       40.71       
C           85.51       13.65       39.46       
C           86.76       14.08       39.13       
C           82.07       20.82       49.88       
N           83.25       21.14       49.25       
C           81.2        19.92       49.24       
C           83.46       20.68       48.05       
C           82.63       19.8        47.27       
C           83.37       19.56       46.02       
C           84.62       20.45       46.14       
N           84.58       21.1        47.33       
C           83.21       18.7        44.94       
C           81.97       17.8        44.83       
N           82.17       16.91       43.81       
C           83.42       17.06       43.25       
C           85.44       18.38       43.37       
C           84.08       18.19       43.84       
C           81.46       19.46       47.96       
O           80.95       17.78       45.52       
O           85.55       20.61       45.38       
C           81.32       15.7        43.88       
C           85.63       22.01       47.73       
H           86.6        21.47       47.44       
H           85.52732    22.95469    47.19604    
H           85.48       22.24       48.77       
H           80.93       15.47       44.87       
H           80.48907    15.74225    43.17582    
H           81.89       14.86       43.59       
H           87.04       17.63       42.2        
H           86.12       19.12       43.77       
H           80.73       18.83       47.5        
H           80.3        19.7        49.78       
C           86.0        17.56       42.44       
N           83.94       16.35       42.21       
C           85.22       16.53       41.82       
C           82.01       22.24       53.4        
C           80.71       22.23       53.01       
S           83.1        21.82       52.13       
H           79.58       21.49       51.19       
H           79.9        22.6        53.61       
C           80.53       21.63       51.72       
C           81.79       21.44       51.11       
C           86.33       26.98       62.46       
N           86.92       25.82       62.04       
C           85.41       27.72       61.71       
C           86.47       25.33       60.99       
C           85.36       25.83       60.16       
C           84.99       24.8        59.13       
C           86.06       23.71       59.32       
N           86.84       24.07       60.39       
C           84.07       24.75       58.1        
C           82.86       25.7        58.02       
N           82.05       25.34       56.94       
C           82.59       24.29       56.26       
C           84.45       22.88       56.24       
C           83.85       23.92       56.88       
C           84.86       27.1        60.57       
O           82.43       26.49       58.81       
O           86.28       22.63       58.78       
C           80.94       26.16       56.45       
C           87.82       23.15       61.03       
H           87.61       22.13       60.93       
H           88.86294    23.32737    60.76749    
H           87.74       23.32       62.1        
H           79.94       25.67       56.47       
H           81.09462    26.60277    55.46606    
H           80.92       27.0        57.14       
H           84.3        21.5        54.61       
H           85.42       22.5        56.65       
H           84.09       27.63       60.04       
H           85.15       28.77       62.04       
C           83.75       22.22       55.17       
N           81.94       23.69       55.22       
C           82.62       22.74       54.63       
C           88.81       28.5        65.06       
C           87.56       28.99       65.36       
S           88.69       27.3        63.82       
H           85.56       28.89       64.38       
H           87.47       29.66       66.17       
C           86.59       28.59       64.39       
C           87.01       27.54       63.63       
C           98.53       32.9        68.45       
N           98.5        31.81       67.6        
C           97.32       33.34       68.95       
C           97.29       31.3        67.27       
C           95.94       31.73       67.66       
C           94.91       30.92       66.99       
C           95.76       30.01       66.15       
N           97.13       30.23       66.42       
C           93.52       30.88       66.88       
C           92.67       32.06       67.37       
N           91.34       31.74       67.3        
C           91.25       30.52       66.69       
C           92.44       28.73       65.75       
C           92.51       29.98       66.4        
C           96.1        32.77       68.59       
O           93.07       33.15       67.83       
O           95.38       29.09       65.51       
C           90.22       32.57       67.61       
C           98.23       29.45       65.91       
H           98.0        28.44       66.02       
H           98.57562    29.78122    64.93074    
H           98.96       29.63       66.61       
H           89.54       32.35       66.83       
H           89.86146    32.41941    68.62827    
H           90.51       33.59       67.57       
H           91.3        27.39       64.61       
H           93.35       28.18       65.45       
H           95.22       33.18       69.03       
H           97.26       34.34       69.35       
C           91.22       28.17       65.3        
N           90.1        30.02       66.31       
C           90.09       28.88       65.59       
C           102.17      34.2        68.59       
C           101.51      34.86       69.59       
S           101.1       33.17       67.69       
H           99.43       34.98       70.26       
H           101.91      35.67       70.22       
C           100.16      34.46       69.67       
C           99.8        33.53       68.71       
C           112.21      37.94       66.06       
N           111.44      37.23       65.21       
C           111.92      38.01       67.44       
C           110.39      36.6        65.69       
C           109.84      36.77       66.99       
C           108.5       36.15       66.93       
C           108.42      35.67       65.46       
N           109.55      35.98       64.85       
C           107.46      36.0        67.84       
C           107.42      36.76       69.17       
N           106.12      36.5        69.67       
C           105.38      35.76       68.8        
C           105.54      34.26       66.93       
C           106.18      35.26       67.79       
C           110.74      37.42       67.88       
O           108.27      37.37       69.74       
O           107.45      35.18       64.82       
C           105.64      37.16       70.82       
C           109.65      35.93       63.35       
H           110.56      36.42       63.0        
H           109.69154   34.91215    62.96225    
H           108.73      36.41       62.96       
H           104.83      36.46       71.19       
H           105.21418   38.11809    70.52193    
H           106.43      37.22       71.57       
H           103.77      33.13       66.53       
H           106.03      33.94       66.07       
H           110.44      37.53       68.87       
H           112.49      38.62       68.17       
C           104.26      33.88       67.19       
N           104.15      35.46       69.04       
C           103.55      34.53       68.19       
C           115.51      38.67       64.27       
C           115.65      39.13       65.57       
S           113.89      38.2        63.94       
H           114.43      39.17       67.38       
H           116.56      39.51       65.99       
C           114.53      38.99       66.34       
C           113.48      38.44       65.62       
C           122.25      37.72       55.35       
N           122.49      38.63       56.26       
C           121.23      36.85       55.51       
C           121.64      38.67       57.31       
C           120.46      37.91       57.59       
C           119.85      38.42       58.9        
C           120.88      39.42       59.36       
N           121.86      39.61       58.37       
C           118.8       38.05       59.68       
C           117.91      36.8        59.31       
N           116.92      36.71       60.24       
C           117.07      37.6        61.27       
C           118.3       39.59       61.89       
C           118.19      38.5        61.01       
C           120.23      36.98       56.53       
O           118.12      35.9        58.52       
O           120.9       40.05       60.35       
C           116.1       35.51       60.34       
C           123.05      40.51       58.45       
H           123.9       39.91       58.18       
H           122.93017   41.42633    57.87201    
H           123.14      40.76       59.55       
H           115.01      35.63       60.52       
H           116.51177   34.85261    61.10575    
H           116.25      34.92       59.41       
H           117.47      40.47       63.64       
H           118.98      40.42       61.73       
H           119.3       36.48       56.47       
H           120.97      36.24       54.66       
C           117.48      39.56       63.05       
N           116.17      37.69       62.24       
C           116.43      38.62       63.19       
C           124.44      36.91       52.17       
C           125.19      37.76       52.93       
S           122.87      36.54       52.91       
H           125.07      38.49       54.97       
H           126.16      38.17       52.69       
C           124.54      37.96       54.17       
C           123.25      37.49       54.31       
C           125.2       30.98       42.8        
N           126.36      31.51       43.29       
C           123.98      31.31       43.44       
C           126.22      32.26       44.39       
C           125.05      32.76       45.05       
C           125.44      33.58       46.23       
C           126.99      33.73       45.96       
N           127.27      33.06       44.75       
C           124.75      34.17       47.25       
C           123.27      33.91       47.53       
N           122.85      34.65       48.58       
C           123.87      35.33       49.11       
C           126.21      35.77       49.02       
C           125.09      35.13       48.42       
C           123.88      32.17       44.56       
O           122.56      33.13       47.03       
O           127.69      34.44       46.62       
C           121.59      34.46       49.3        
C           128.63      32.92       44.16       
H           128.47      32.76       43.12       
H           129.20062   32.08126    44.55875    
H           129.11      33.88       44.19       
H           121.83      34.0        50.24       
H           120.97043   35.33429    49.49964    
H           120.97      33.77       48.8        
H           126.98      36.73       50.79       
H           127.17      35.49       48.65       
H           122.9       32.49       44.82       
H           123.12      30.85       43.06       
C           126.05      36.43       50.25       
N           123.69      35.98       50.21       
C           124.75      36.46       50.81       
C           126.48      28.92       39.67       
C           125.1       28.66       39.81       
S           126.94      30.07       40.93       
H           123.39      29.39       41.17       
H           124.53      28.04       39.16       
C           124.49      29.42       40.9        
C           125.37      30.14       41.66       
C           132.97      24.15       32.21       
N           133.55      24.32       33.39       
C           131.76      24.66       31.82       
C           132.67      24.79       34.32       
C           131.4       25.4        34.12       
C           130.87      25.92       35.4        
C           131.91      25.47       36.4        
N           133.05      24.96       35.7        
C           129.65      26.52       35.7        
C           128.42      26.34       34.86       
N           127.34      26.85       35.54       
C           127.79      27.45       36.73       
C           129.69      27.69       38.11       
C           129.19      27.2        36.88       
C           131.03      25.48       32.75       
O           128.26      25.66       33.83       
O           132.04      25.7        37.62       
C           125.96      26.63       35.12       
C           134.23      24.46       36.32       
H           134.41      23.48       35.96       
H           135.12232   25.08105    36.24148    
H           134.02      24.37       37.36       
H           125.45      27.6        35.0        
H           125.43196   25.93521    35.7731     
H           125.94      26.12       34.16       
H           129.15      28.59       40.01       
H           130.75      27.62       38.37       
H           130.13      25.93       32.42       
H           131.4       24.52       30.77       
C           128.84      28.31       39.06       
N           126.99      28.07       37.57       
C           127.5       28.46       38.76       
C           135.65      22.26       30.0        
C           134.74      22.85       29.15       
S           135.35      22.85       31.62       
H           132.88      24.11       29.33       
H           134.7       22.68       28.05       
C           133.68      23.54       29.87       
C           133.85      23.55       31.2        
H           119.32      4.98        16.85       
H           136.64      21.93       29.71       
