392

C           95.59       10.83       20.73       
N           94.56       10.31       20.03       
C           96.57       11.7        20.18       
C           94.51       10.7        18.78       
C           95.34       11.57       18.04       
C           94.88       11.79       16.69       
C           93.7        10.82       16.69       
N           93.55       10.17       17.88       
C           95.33       12.56       15.62       
C           96.59       13.46       15.65       
N           96.71       13.89       14.35       
C           95.65       13.49       13.46       
C           93.7        12.31       13.48       
C           94.72       12.8        14.26       
C           96.42       12.09       18.84       
O           97.32       13.71       16.6        
O           93.01       10.46       15.81       
C           97.64       14.9        14.05       
C           92.54       9.16        18.11       
H           91.67       9.3         17.54       
H           92.96794    8.16382     17.99775    
H           92.13       9.33        19.06       
H           97.17       15.67       13.48       
H           98.4949     14.47255    13.52603    
H           97.96       15.44       15.0        
H           92.81       12.04       11.63       
H           93.04       11.55       13.93       
H           97.11       12.84       18.47       
H           97.34       12.1        20.74       
C           93.56       12.55       12.16       
N           95.44       13.92       12.27       
C           94.35       13.51       11.61       
C           94.74       9.81        24.39       
C           95.95       10.38       24.45       
S           94.16       9.76        22.76       
H           97.3        11.27       23.0        
H           96.46       10.51       25.38       
C           96.4        10.79       23.13       
C           95.56       10.42       22.12       
C           87.22       3.99        30.28       
N           88.32       4.45        30.84       
C           87.06       4.14        28.91       
C           89.13       5.18        30.19       
C           89.15       5.45        28.77       
C           90.35       6.29        28.44       
C           91.05       6.43        29.77       
N           90.25       5.77        30.74       
C           90.83       6.9         27.25       
C           89.97       6.98        25.97       
N           90.62       7.71        24.98       
C           91.85       8.12        25.53       
C           93.19       8.17        27.49       
C           92.02       7.65        26.92       
C           88.01       4.9         28.15       
O           89.01       6.33        25.76       
O           92.01       7.14        30.03       
C           90.36       7.65        23.5        
C           90.49       6.17        32.12       
H           89.48       6.34        32.56       
H           90.95163    5.36747     32.69527    
H           91.06       7.13        32.1        
H           91.24       7.54        22.93       
H           89.91053    8.58405     23.1629     
H           89.6        6.89        23.25       
H           95.02       9.31        27.21       
H           93.57       7.85        28.41       
H           87.75       5.17        27.17       
H           86.16       3.71        28.42       
C           94.11       8.94        26.73       
N           92.66       8.9         24.9        
C           93.81       9.25        25.42       
C           84.94       2.87        33.2        
C           84.4        2.34        32.02       
S           86.33       3.84        32.85       
H           84.85       2.52        29.86       
H           83.52       1.73        31.94       
C           85.12       2.76        30.86       
C           86.24       3.45        31.17       
C           81.22       2.37        43.52       
N           82.49       2.63        43.22       
C           80.35       1.99        42.56       
C           82.92       2.31        42.04       
C           82.14       1.89        40.92       
C           83.02       1.89        39.79       
C           84.36       2.19        40.39       
N           84.25       2.42        41.72       
C           82.92       1.62        38.4        
C           81.92       0.68        37.77       
N           82.01       0.81        36.4        
C           83.11       1.64        36.09       
C           84.81       2.97        36.98       
C           83.73       2.09        37.21       
C           80.77       1.65        41.25       
O           81.15       0.0         38.33       
O           85.49       2.24        39.92       
C           81.16       0.09        35.48       
C           85.24       3.12        42.54       
H           84.82       3.85        43.17       
H           85.74963    2.49004     43.26906    
H           85.93       3.54        41.86       
H           80.95       0.73        34.6        
H           81.4425     -0.93909    35.25804    
H           80.18       -0.01       35.9        
H           86.0        3.91        35.46       
H           85.4        3.38        37.77       
H           80.17       1.36        40.47       
H           79.3        1.91        42.84       
C           85.22       3.21        35.66       
N           83.51       1.81        34.83       
C           84.58       2.56        34.6        
C           80.83       3.41        47.33       
C           79.62       2.96        46.88       
S           82.05       3.09        46.12       
H           78.76       2.13        44.97       
H           78.77       2.91        47.52       
C           79.6        2.54        45.48       
C           80.84       2.62        44.95       
C           82.99       7.54        57.29       
N           83.94       7.48        56.44       
C           81.75       7.09        56.98       
C           83.65       6.79        55.3        
C           82.41       6.22        54.9        
C           82.54       5.74        53.5        
C           83.93       6.12        53.18       
N           84.46       6.83        54.23       
C           81.69       5.2         52.62       
C           80.34       4.72        52.96       
N           79.72       4.19        51.83       
C           80.52       4.35        50.77       
C           82.8        4.77        50.26       
C           81.78       4.87        51.22       
C           81.41       6.43        55.79       
O           79.82       4.5         54.03       
O           84.57       6.1         52.18       
C           78.41       3.54        51.65       
C           85.76       7.47        54.2        
H           86.55       6.75        53.8        
H           85.70958    8.44958     53.72462    
H           85.88       7.81        55.28       
H           78.15       3.04        52.52       
H           77.64261    4.25001     51.34161    
H           78.47       2.76        50.88       
H           83.28       4.57        48.2        
H           83.86       4.96        50.5        
H           80.43       6.1         55.55       
H           80.92       7.32        57.71       
C           82.43       4.53        48.95       
N           80.25       3.93        49.55       
C           81.18       4.02        48.6        
C           84.08       10.36       59.68       
C           82.91       9.86        60.22       
S           84.69       9.34        58.35       
H           81.55       8.32        59.67       
H           82.32       10.38       60.94       
C           82.51       8.69        59.47       
C           83.34       8.25        58.51       
C           89.23       19.78       62.12       
N           89.36       19.13       60.99       
C           88.23       19.42       63.02       
C           88.67       18.15       60.58       
C           87.66       17.61       61.38       
C           87.12       16.45       60.64       
C           88.0        16.43       59.38       
N           88.91       17.46       59.41       
C           86.14       15.51       60.96       
C           85.09       15.63       62.13       
N           84.37       14.46       62.12       
C           84.84       13.55       61.13       
C           86.39       13.23       59.45       
C           85.89       14.15       60.43       
C           87.45       18.35       62.63       
O           84.87       16.53       62.91       
O           87.88       15.73       58.43       
C           83.18       14.25       63.03       
C           89.55       18.11       58.26       
H           90.15       17.45       57.65       
H           88.89226    18.65209    57.58058    
H           90.25       18.85       58.7        
H           83.4        13.24       63.38       
H           82.24322    14.33581    62.47938    
H           83.24       14.8        63.95       
H           86.33       11.35       58.42       
H           87.22       13.52       58.8        
H           86.68       18.04       63.32       
H           88.06       19.92       63.99       
C           85.86       12.0        59.24       
N           84.24       12.37       60.9        
C           84.75       11.62       59.9        
C           92.27       22.14       62.52       
C           91.43       22.42       63.54       
S           91.76       20.69       61.66       
H           89.3        21.87       64.02       
H           91.68       23.18       64.27       
C           90.16       21.73       63.41       
C           90.24       20.78       62.45       
C           103.05      24.65       62.97       
N           102.52      24.18       61.8        
C           102.18      24.78       64.02       
C           101.19      23.88       61.76       
C           100.23      24.19       62.74       
C           98.91       23.94       62.14       
C           99.28       23.47       60.75       
N           100.6       23.5        60.58       
C           97.65       23.92       62.7        
C           97.37       24.73       63.94       
N           95.95       24.51       64.29       
C           95.4        23.71       63.31       
C           95.8        22.62       61.3        
C           96.31       23.37       62.32       
C           100.81      24.5        63.96       
O           98.04       25.63       64.45       
O           98.57       23.28       59.78       
C           95.18       25.4        65.09       
C           101.28      22.96       59.42       
H           100.6       22.37       58.91       
H           101.69377   23.7376     58.77795    
H           102.06      22.29       59.85       
H           94.17       25.6        64.65       
H           95.17285    25.04247    66.11967    
H           95.75       26.35       65.06       
H           94.08       21.6        60.49       
H           96.42       22.41       60.44       
H           100.23      24.58       64.91       
H           102.68      25.02       64.99       
C           94.45       22.18       61.32       
N           94.14       23.28       63.4        
C           93.64       22.56       62.38       
C           106.71      25.6        62.07       
C           106.5       26.03       63.33       
S           105.36      24.76       61.45       
H           104.8       25.89       64.79       
H           107.15      26.63       63.94       
C           105.21      25.56       63.83       
C           104.4       25.06       62.88       
C           116.35      27.51       57.07       
N           115.36      27.15       56.33       
C           116.22      27.39       58.48       
C           114.19      26.88       56.92       
C           113.92      26.93       58.32       
C           112.49      26.72       58.44       
C           112.04      26.29       57.08       
N           113.08      26.36       56.24       
C           111.62      26.86       59.47       
C           111.96      27.63       60.66       
N           110.85      27.72       61.5        
C           109.95      26.79       61.13       
C           109.27      25.56       59.3        
C           110.25      26.33       59.85       
C           115.04      27.18       59.14       
O           112.95      28.21       61.01       
O           110.86      26.02       56.76       
C           110.9       28.48       62.74       
C           113.13      25.95       54.89       
H           112.61      25.05       54.72       
H           112.99256   26.76017    54.17387    
H           114.16      25.64       54.61       
H           110.5       27.88       63.62       
H           110.42649   29.44823    62.57745    
H           111.94      28.62       63.02       
H           107.37      24.65       59.37       
H           109.4       25.08       58.36       
H           115.02      27.14       60.23       
H           117.17      27.47       59.04       
C           108.05      25.27       59.92       
N           108.87      26.52       61.8        
C           107.89      25.78       61.18       
C           119.27      28.8        54.91       
C           119.62      29.0        56.22       
S           117.73      27.97       54.82       
H           118.6       28.77       58.2        
H           120.4       29.73       56.52       
C           118.61      28.56       57.13       
C           117.56      28.01       56.52       
C           123.1       32.8        45.21       
N           123.7       33.17       46.42       
C           122.05      31.87       45.25       
C           123.15      32.65       47.53       
C           122.15      31.63       47.61       
C           122.12      31.18       49.08       
C           123.09      32.15       49.7        
N           123.69      32.93       48.78       
C           121.27      30.25       49.83       
C           120.35      29.23       49.2        
N           119.75      28.47       50.22       
C           120.07      29.05       51.48       
C           121.43      30.61       52.5        
C           120.97      30.08       51.29       
C           121.67      31.23       46.4        
O           120.29      28.91       48.05       
O           123.42      32.28       50.81       
C           118.9       27.27       50.05       
C           124.74      33.84       49.1        
H           124.66      34.25       50.12       
H           125.69868   33.36781    48.88537    
H           124.57      34.81       48.47       
H           117.93      27.51       50.57       
H           119.39138   26.35133    50.37047    
H           118.75      27.26       48.95       
H           121.05      30.85       54.53       
H           122.22      31.32       52.48       
H           120.92      30.49       46.35       
H           121.56      31.53       44.35       
C           120.83      30.26       53.68       
N           119.59      28.59       52.66       
C           119.88      29.23       53.75       
C           124.32      33.22       41.57       
C           125.08      34.15       42.25       
S           123.28      32.31       42.59       
H           125.09      34.7        44.42       
H           125.87      34.78       41.79       
C           124.73      34.12       43.68       
C           123.71      33.26       44.0        
C           126.24      27.52       32.39       
N           127.17      28.27       33.02       
C           124.87      27.68       32.72       
C           126.7       29.19       33.82       
C           125.45      29.32       34.45       
C           125.58      30.31       35.52       
C           127.03      30.74       35.46       
N           127.62      29.93       34.52       
C           124.78      30.73       36.6        
C           123.43      29.99       36.89       
N           122.93      30.43       38.02       
C           123.82      31.4        38.5        
C           125.88      32.51       38.34       
C           124.97      31.59       37.74       
C           124.48      28.56       33.77       
O           122.76      29.25       36.23       
O           127.69      31.48       36.17       
C           121.65      29.95       38.61       
C           129.08      29.69       34.44       
H           129.44      29.74       33.46       
H           129.39999   28.81351    35.00345    
H           129.57      30.5        34.96       
H           121.59      29.94       39.68       
H           120.78068   30.54368    38.32729    
H           121.7       28.97       38.29       
H           126.38      33.68       40.04       
H           126.86      32.65       37.91       
H           123.47      28.48       34.2        
H           124.14      27.05       32.29       
C           125.59      33.11       39.56       
N           123.59      31.9        39.72       
C           124.47      32.77       40.22       
C           128.27      25.6        29.75       
C           127.0       25.06       29.65       
S           128.42      26.87       30.88       
H           125.12      25.45       30.79       
H           126.67      24.24       29.06       
C           126.09      25.78       30.55       
C           126.71      26.76       31.27       
C           136.79      19.49       26.53       
N           136.96      20.82       26.51       
C           135.5       18.89       26.31       
C           135.91      21.52       26.68       
C           134.5       21.14       26.71       
C           133.69      22.28       27.17       
C           134.76      23.42       27.36       
N           136.02      22.89       26.99       
C           132.33      22.44       27.49       
C           131.2       21.36       27.23       
N           129.96      21.91       27.56       
C           130.18      23.1        28.28       
C           131.85      24.67       28.95       
C           131.55      23.46       28.29       
C           134.41      19.78       26.38       
O           131.27      20.36       26.54       
O           134.58      24.64       27.59       
C           128.75      21.45       27.03       
C           137.3       23.57       27.26       
H           137.92      22.92       27.83       
H           137.76967   23.86177    26.32065    
H           137.0       24.36       27.95       
H           128.18      22.22       26.54       
H           128.14654   20.9922     27.81381    
H           129.03      20.76       26.26       
H           131.01      26.28       30.15       
H           132.85      25.03       29.09       
H           133.45      19.32       26.4        
H           135.45      17.85       26.25       
C           130.78      25.42       29.55       
N           129.16      23.82       28.73       
C           129.45      24.97       29.3        
C           140.0       17.17       25.93       
C           140.42      18.47       26.15       
S           138.25      17.14       26.1        
H           139.49      20.4        26.54       
H           141.44      18.81       26.06       
C           139.29      19.34       26.33       
C           138.06      18.8        26.45       
H           93.98       14.03       10.74       
H           140.64      16.24       26.15       
