392

C           87.41       41.1        16.29       
N           86.27       41.34       15.64       
C           88.58       40.79       15.76       
C           86.37       41.24       14.29       
C           87.55       41.01       13.57       
C           87.29       41.19       12.08       
C           85.76       41.22       12.06       
N           85.36       41.32       13.36       
C           87.9        41.07       10.83       
C           89.36       40.61       10.68       
N           89.53       40.42       9.32        
C           88.39       40.88       8.64        
C           86.4        42.09       8.83        
C           87.43       41.43       9.48        
C           88.7        40.74       14.35       
O           90.23       40.3        11.48       
O           84.91       41.15       11.11       
C           90.57       39.5        8.91        
C           83.96       40.95       13.67       
H           83.26       41.23       12.89       
H           83.77559    39.88609    13.81895    
H           83.58       41.37       14.59       
H           90.92       39.69       7.92        
H           90.22792    38.46664    8.85299     
H           91.43       39.61       9.52        
H           85.76       42.8        6.9         
H           85.64       42.6        9.38        
H           89.69       40.55       13.91       
H           89.43       40.6        16.37       
C           86.36       42.13       7.42        
N           88.39       40.9        7.28        
C           87.33       41.48       6.65        
C           86.33       41.38       19.89       
C           87.58       40.95       20.02       
S           85.8        41.42       18.26       
H           89.25       40.61       18.66       
H           88.04       40.99       21.0        
C           88.18       40.82       18.76       
C           87.32       41.06       17.71       
C           79.53       46.38       27.19       
N           80.87       46.24       27.46       
C           79.01       45.89       26.0        
C           81.56       45.58       26.55       
C           81.14       44.89       25.38       
C           82.3        44.19       24.78       
C           83.41       44.47       25.76       
N           82.88       45.31       26.75       
C           82.55       43.44       23.62       
C           81.38       43.03       22.71       
N           82.0        42.41       21.58       
C           83.4        42.39       21.64       
C           85.17       43.14       23.1        
C           83.79       42.99       22.89       
C           79.79       45.12       25.13       
O           80.2        43.02       22.88       
O           84.59       44.12       25.83       
C           81.19       41.8        20.52       
C           83.69       45.99       27.74       
H           83.66       46.98       27.48       
H           83.51373    45.72912    28.78354    
H           84.76       45.77       27.49       
H           81.77       41.04       20.08       
H           80.9504     42.50469    19.7237     
H           80.38       41.45       21.04       
H           87.08       42.75       22.25       
H           85.54       43.59       23.97       
H           79.28       44.75       24.25       
H           77.94       45.99       25.76       
C           86.03       42.64       22.08       
N           84.2        41.83       20.76       
C           85.52       41.9        20.99       
C           78.21       48.64       30.06       
C           77.14       48.4        29.21       
S           79.7        47.96       29.42       
H           76.75       46.98       27.56       
H           76.2        48.81       29.47       
C           77.45       47.43       28.26       
C           78.79       47.17       28.17       
C           76.57       52.77       40.16       
N           77.74       52.91       39.65       
C           75.5        52.42       39.46       
C           77.97       52.47       38.42       
C           76.94       52.04       37.49       
C           77.61       51.69       36.2        
C           79.05       51.99       36.47       
N           79.18       52.46       37.81       
C           77.15       51.21       34.95       
C           75.7        51.36       34.59       
N           75.56       50.78       33.37       
C           76.77       50.26       32.85       
C           79.08       50.4        33.3        
C           77.81       50.66       33.76       
C           75.67       51.99       38.1        
O           74.76       51.75       35.27       
O           80.0        51.97       35.72       
C           74.28       50.5        32.74       
C           80.42       53.03       38.31       
H           80.24       53.81       39.03       
H           81.03851    52.29774    38.82898    
H           80.86       53.58       37.5        
H           73.55       50.38       33.43       
H           74.10557    51.28146    32.00041    
H           74.45       49.54       32.21       
H           80.18       49.5        31.77       
H           79.97       50.64       33.88       
H           74.78       51.6        37.59       
H           74.57       52.44       40.01       
C           79.22       49.73       32.11       
N           76.85       49.62       31.67       
C           78.09       49.38       31.26       
C           77.01       53.11       44.0        
C           75.72       52.76       43.78       
S           77.9        53.26       42.53       
H           74.42       52.35       42.11       
H           75.05       52.58       44.55       
C           75.42       52.64       42.4        
C           76.48       52.89       41.57       
C           81.32       52.77       54.26       
N           82.07       52.87       53.19       
C           79.96       52.6        54.1        
C           81.44       52.8        52.02       
C           80.06       52.8        51.71       
C           79.97       52.89       50.21       
C           81.42       53.01       49.71       
N           82.26       52.92       50.84       
C           78.88       53.03       49.28       
C           77.45       52.97       49.72       
N           76.65       53.01       48.61       
C           77.4        53.19       47.49       
C           79.56       52.86       46.61       
C           78.76       53.07       47.8        
C           79.3        52.63       52.87       
O           76.92       52.88       50.85       
O           81.98       53.27       48.65       
C           75.2        53.2        48.74       
C           83.74       52.95       50.85       
H           84.15       52.67       49.89       
H           84.25559    53.8486     51.18881    
H           84.05       52.12       51.43       
H           74.76       52.88       49.72       
H           74.80654    54.18021    48.47079    
H           74.73       52.38       48.14       
H           79.7        53.01       44.43       
H           80.56       52.57       46.74       
H           78.26       52.52       52.79       
H           79.32       52.33       54.92       
C           79.01       53.04       45.33       
N           76.81       53.16       46.31       
C           77.65       53.16       45.26       
C           84.21       52.96       56.93       
C           83.05       52.82       57.65       
S           83.84       52.83       55.27       
H           80.85       52.62       57.3        
H           83.0        52.83       58.74       
C           81.89       52.66       56.93       
C           82.11       52.74       55.53       
C           93.63       55.64       62.14       
N           93.69       55.43       60.86       
C           92.44       55.83       62.81       
C           92.56       55.12       60.33       
C           91.28       55.08       60.87       
C           90.28       54.62       59.86       
C           91.15       54.55       58.6        
N           92.35       55.05       58.95       
C           88.94       54.33       59.8        
C           88.05       54.37       61.05       
N           86.73       54.04       60.75       
C           86.67       53.9        59.33       
C           87.95       53.75       57.36       
C           87.95       54.02       58.71       
C           91.24       55.48       62.23       
O           88.32       54.46       62.25       
O           90.93       54.44       57.45       
C           85.62       53.59       61.69       
C           93.52       54.81       58.09       
H           94.24       55.61       58.29       
H           93.97104    53.82335    58.19571    
H           93.19       55.06       57.07       
H           84.93       52.8        61.31       
H           85.0059     54.42997    62.0147     
H           86.05       53.01       62.53       
H           86.71       53.35       55.55       
H           88.88       53.75       56.79       
H           90.3        55.56       62.75       
H           92.33       56.0        63.77       
C           86.72       53.56       56.66       
N           85.58       53.53       58.74       
C           85.54       53.35       57.4        
C           97.27       56.35       63.38       
C           96.48       56.28       64.48       
S           96.38       55.98       61.94       
H           94.33       55.94       64.95       
H           96.84       56.37       65.45       
C           95.1        56.05       64.15       
C           94.89       55.89       62.82       
C           108.09      57.48       64.18       
N           107.54      57.29       62.99       
C           107.29      57.74       65.32       
C           106.24      57.51       62.94       
C           105.33      57.72       63.99       
C           103.98      57.64       63.5        
C           104.24      57.43       61.98       
N           105.64      57.55       61.74       
C           102.71      57.5        64.05       
C           102.44      57.53       65.61       
N           101.18      57.16       65.93       
C           100.5       57.0        64.68       
C           100.79      57.09       62.28       
C           101.39      57.23       63.55       
C           105.91      57.88       65.25       
O           103.2       57.72       66.62       
O           103.53      57.31       61.01       
C           100.7       56.59       67.17       
C           106.19      57.4        60.42       
H           106.92      58.14       60.17       
H           106.56907   56.40062    60.20634    
H           105.43      57.77       59.7        
H           99.7        56.93       67.3        
H           100.69293   55.50149    67.11345    
H           101.4       56.94       67.93       
H           99.0        56.75       61.24       
H           101.35      57.06       61.37       
H           105.38      58.05       66.16       
H           107.77      57.94       66.29       
C           99.45       56.78       62.24       
N           99.17       56.76       64.64       
C           98.7        56.62       63.37       
C           111.96      57.15       63.96       
C           111.62      57.4        65.2        
S           110.56      57.02       62.9        
H           109.75      57.47       66.4        
H           112.26      57.36       66.04       
C           110.2       57.35       65.43       
C           109.51      57.31       64.26       
C           122.0       59.81       60.37       
N           121.08      59.44       59.46       
C           121.68      59.82       61.71       
C           119.9       59.06       59.91       
C           119.46      58.99       61.26       
C           118.15      58.39       61.33       
C           117.76      58.33       59.84       
N           118.84      58.87       59.14       
C           117.32      58.02       62.37       
C           117.76      57.73       63.83       
N           116.66      57.37       64.52       
C           115.52      57.39       63.79       
C           114.75      57.76       61.58       
C           115.85      57.78       62.44       
C           120.43      59.42       62.12       
O           118.88      57.66       64.26       
O           116.84      57.8        59.3        
C           116.67      56.82       65.82       
C           118.84      59.12       57.71       
H           118.39      58.23       57.18       
H           118.2543    59.99494    57.42799    
H           119.84      59.19       57.42       
H           115.95      56.02       65.84       
H           116.52718   57.5841     66.5841     
H           117.62      56.26       65.9        
H           112.65      57.43       61.41       
H           114.9       57.87       60.51       
H           120.07      59.43       63.22       
H           122.39      60.24       62.43       
C           113.54      57.36       62.07       
N           114.34      57.15       64.29       
C           113.31      57.11       63.4        
C           125.16      61.22       58.66       
C           125.47      60.98       59.96       
S           123.52      60.78       58.35       
H           124.7       59.96       61.64       
H           126.45      61.24       60.31       
C           124.5       60.29       60.65       
C           123.33      60.12       59.95       
C           131.21      64.71       50.13       
N           131.55      64.98       51.39       
C           129.97      64.04       49.88       
C           130.72      64.74       52.38       
C           129.4       64.12       52.21       
C           128.89      63.98       53.62       
C           129.89      64.7        54.46       
N           130.96      64.97       53.66       
C           127.77      63.33       54.08       
C           126.53      62.86       53.22       
N           125.64      62.25       54.05       
C           126.06      62.28       55.39       
C           127.77      63.19       56.81       
C           127.3       63.03       55.45       
C           129.14      63.74       50.91       
O           126.23      63.12       52.0        
O           129.98      64.96       55.62       
C           124.42      61.68       53.46       
C           132.24      65.31       54.14       
H           132.23      65.64       55.17       
H           132.96853   64.51142    53.9999     
H           132.54      66.17       53.53       
H           123.57      61.98       54.06       
H           124.45579   60.59209    53.51726    
H           124.28      61.99       52.4        
H           127.44      62.7        58.88       
H           128.71      63.73       57.04       
H           128.29      63.13       50.75       
H           129.74      63.71       48.88       
C           127.03      62.69       57.89       
N           125.36      61.75       56.37       
C           125.96      61.85       57.62       
C           133.21      65.03       46.78       
C           134.03      65.45       47.78       
S           131.65      64.58       47.43       
H           133.86      65.88       50.01       
H           135.12      65.66       47.68       
C           133.39      65.47       49.1        
C           132.14      64.91       49.07       
C           135.1       67.43       36.43       
N           136.1       67.2        37.34       
C           133.75      67.03       36.64       
C           135.75      66.55       38.43       
C           134.51      66.2        38.89       
C           134.6       65.7        40.27       
C           136.14      65.68       40.47       
N           136.76      66.19       39.33       
C           133.77      65.38       41.3        
C           132.32      65.02       41.13       
N           131.69      64.73       42.37       
C           132.7       64.9        43.33       
C           134.96      65.51       43.62       
C           133.95      65.27       42.75       
C           133.49      66.45       37.89       
O           131.72      65.03       40.07       
O           136.86      65.16       41.35       
C           130.31      64.34       42.39       
C           138.2       66.45       39.12       
H           138.51      67.51       39.06       
H           138.61732   65.80962    38.34292    
H           138.63      66.18       40.11       
H           130.22      63.47       43.1        
H           129.65892   65.13654    42.75017    
H           130.04      64.02       41.39       
H           135.4       65.96       45.72       
H           135.84      65.94       43.24       
H           132.44      66.22       38.16       
H           132.95      67.2        35.95       
C           134.69      65.49       45.04       
N           132.48      64.67       44.61       
C           133.4       65.17       45.4        
C           136.47      69.88       33.7        
C           135.3       69.43       33.28       
S           136.94      69.09       35.12       
H           133.81      67.93       33.89       
H           134.94      69.76       32.3        
C           134.72      68.41       34.07       
C           135.5       68.14       35.2        
C           142.27      77.11       27.67       
N           142.67      76.77       28.88       
C           141.14      76.61       27.13       
C           141.86      76.03       29.56       
C           140.64      75.41       29.15       
C           140.15      74.62       30.27       
C           141.18      74.89       31.34       
N           142.16      75.64       30.86       
C           139.01      73.88       30.55       
C           137.89      73.71       29.51       
N           136.99      72.76       30.01       
C           137.36      72.39       31.29       
C           139.13      72.44       32.84       
C           138.62      73.0        31.65       
C           140.25      75.78       27.87       
O           137.8       74.2        28.4        
O           141.19      74.56       32.47       
C           135.84      72.23       29.28       
C           142.79      76.6        31.81       
H           142.16      76.8        32.67       
H           143.81168   76.31111    32.05661    
H           142.8       77.47       31.3        
H           135.12      72.06       30.1        
H           136.07985   71.29241    28.7785     
H           135.42      72.99       28.63       
H           138.89      70.9        34.38       
H           140.07      72.71       33.16       
H           139.28      75.56       27.4        
H           140.81      77.07       26.19       
C           138.47      71.47       33.54       
N           136.66      71.51       31.98       
C           137.26      70.98       33.07       
C           145.3       78.95       26.19       
C           144.35      79.04       25.19       
S           144.82      78.02       27.6        
H           142.18      78.37       25.15       
H           144.48      79.61       24.25       
C           143.13      78.41       25.64       
C           143.22      77.92       26.97       
H           87.1        41.16       5.59        
H           146.12      79.67       26.17       
