392

C           86.66       36.72       0.4         
N           85.65       35.93       0.14        
C           87.5        37.13       -0.67       
C           85.43       35.6        -1.18       
C           86.11       36.02       -2.37       
C           85.53       35.36       -3.57       
C           84.42       34.55       -2.92       
N           84.39       34.77       -1.56       
C           85.81       35.34       -4.93       
C           86.81       36.32       -5.57       
N           86.85       36.03       -6.92       
C           86.01       34.95       -7.26       
C           84.45       33.47       -6.39       
C           85.3        34.54       -6.11       
C           87.19       36.86       -2.0        
O           87.43       37.3        -5.02       
O           83.6        33.88       -3.45       
C           87.76       36.55       -7.99       
C           83.37       34.28       -0.65       
H           82.49       34.38       -1.26       
H           83.52991    33.24407    -0.35104    
H           83.23       35.03       0.11        
H           87.17       36.89       -8.86       
H           88.56598    35.86527    -8.2539     
H           88.28       37.4        -7.53       
H           83.66       32.17       -7.83       
H           83.92       33.03       -5.57       
H           87.88       37.27       -2.72       
H           88.39       37.65       -0.41       
C           84.42       32.95       -7.67       
N           85.88       34.61       -8.53       
C           85.04       33.57       -8.79       
C           86.75       37.11       4.29        
C           88.06       37.34       3.87        
S           85.7        36.78       2.95        
H           89.11       37.39       1.78        
H           88.93       37.52       4.51        
C           88.13       37.24       2.37        
C           86.96       36.94       1.78        
C           81.59       37.42       14.04       
N           82.62       38.25       13.85       
C           81.13       36.67       12.93       
C           83.16       38.42       12.66       
C           82.82       37.71       11.51       
C           83.73       38.02       10.41       
C           84.71       38.96       11.02       
N           84.31       39.19       12.38       
C           83.81       37.64       9.06        
C           82.67       36.91       8.3         
N           83.04       36.56       7.01        
C           84.3        37.11       6.83        
C           86.14       38.32       7.84        
C           84.85       37.75       7.99        
C           81.8        36.77       11.73       
O           81.52       36.67       8.69        
O           85.68       39.48       10.53       
C           82.23       35.85       6.03        
C           85.02       39.99       13.36       
H           84.41       40.13       14.23       
H           86.01438    39.60979    13.59397    
H           85.14       40.98       12.93       
H           82.78       35.1        5.38        
H           81.55951    36.45065    5.41538     
H           81.57       35.22       6.63        
H           87.84       38.57       6.5         
H           86.68       38.85       8.57        
H           81.41       36.24       10.97       
H           80.32       35.93       13.0        
C           86.82       38.12       6.58        
N           84.94       36.89       5.7         
C           86.18       37.35       5.61        
C           80.67       37.93       17.82       
C           79.64       37.25       17.25       
S           82.05       38.1        16.67       
H           79.15       36.49       15.27       
H           78.72       37.11       17.78       
C           79.91       36.95       15.89       
C           81.06       37.5        15.36       
C           79.66       43.71       26.95       
N           80.98       43.29       26.68       
C           78.67       43.33       26.01       
C           81.2        42.32       25.72       
C           80.15       41.81       24.86       
C           80.7        40.94       23.87       
C           82.18       40.93       24.23       
N           82.4        41.78       25.29       
C           80.15       40.09       22.91       
C           78.75       39.62       23.08       
N           78.47       38.71       22.03       
C           79.57       38.69       21.15       
C           81.76       39.65       20.95       
C           80.62       39.42       21.72       
C           78.89       42.35       25.06       
O           78.0        39.67       24.02       
O           83.08       40.19       23.85       
C           77.18       38.22       21.73       
C           83.74       42.24       25.51       
H           84.51       41.55       25.21       
H           83.89263    43.27936    25.21927    
H           83.78       42.33       26.59       
H           76.68       37.9        22.71       
H           76.61016    38.90525    21.10245    
H           77.31       37.27       21.22       
H           82.7        39.2        19.05       
H           82.48       40.37       21.26       
H           78.03       42.06       24.44       
H           77.63       43.68       26.09       
C           81.84       39.0        19.69       
N           79.63       38.06       19.97       
C           80.72       38.31       19.23       
C           79.56       45.95       30.18       
C           78.24       45.67       29.88       
S           80.7        45.29       29.06       
H           77.2        44.52       28.22       
H           77.29       45.97       30.33       
C           78.13       44.94       28.65       
C           79.41       44.51       28.16       
C           82.97       46.47       40.79       
N           83.8        46.95       39.82       
C           81.72       45.93       40.46       
C           83.35       46.82       38.58       
C           82.09       46.28       38.09       
C           81.97       46.55       36.62       
C           83.42       47.18       36.4        
N           84.08       47.35       37.55       
C           81.0        46.32       35.56       
C           79.67       45.72       35.87       
N           78.95       45.42       34.75       
C           79.62       45.99       33.68       
C           81.68       47.06       33.07       
C           80.86       46.5        34.08       
C           81.33       45.72       39.15       
O           79.21       45.51       36.99       
O           84.02       47.37       35.34       
C           77.87       44.47       34.75       
C           85.27       48.14       37.66       
H           85.78       47.95       36.76       
H           85.12898    49.19061    37.91384    
H           85.95       47.63       38.4        
H           78.14       43.69       35.38       
H           76.94374    44.97523    35.02367    
H           77.82       44.11       33.74       
H           82.04       47.05       30.92       
H           82.69       47.35       33.27       
H           80.38       45.35       38.89       
H           81.08       45.55       41.23       
C           81.32       46.78       31.71       
N           79.19       45.92       32.48       
C           80.04       46.23       31.49       
C           84.66       47.36       44.21       
C           83.39       46.95       44.47       
S           85.06       47.29       42.52       
H           81.74       46.02       43.27       
H           82.97       46.78       45.44       
C           82.72       46.53       43.27       
C           83.47       46.68       42.17       
C           89.73       54.29       51.03       
N           90.51       53.79       50.01       
C           88.44       53.76       51.15       
C           90.01       52.86       49.23       
C           88.79       52.17       49.4        
C           88.59       51.13       48.39       
C           89.78       51.39       47.47       
N           90.63       52.31       48.06       
C           87.55       50.26       48.13       
C           86.5        49.8        49.12       
N           85.54       48.94       48.55       
C           85.95       48.73       47.23       
C           87.49       49.37       45.65       
C           87.1        49.5        46.94       
C           87.94       52.69       50.43       
O           86.42       49.99       50.32       
O           90.04       50.9        46.38       
C           84.24       48.82       49.02       
C           91.7        53.0        47.41       
H           91.56       54.05       47.56       
H           92.68041    52.69111    47.77262    
H           91.6        52.82       46.36       
H           83.85       47.93       48.62       
H           83.63861    49.71195    48.84431    
H           84.25       48.7        50.13       
H           87.04       48.76       43.66       
H           88.4        49.85       45.39       
H           86.95       52.28       50.64       
H           87.77       54.27       51.81       
C           86.74       48.64       44.73       
N           85.27       47.9        46.42       
C           85.64       47.9        45.09       
C           91.92       56.76       53.05       
C           90.77       56.69       53.74       
S           91.98       55.75       51.74       
H           88.9        55.53       53.63       
H           90.67       57.07       54.71       
C           89.84       55.77       53.16       
C           90.34       55.28       51.98       
C           100.8       60.01       58.31       
N           100.8       60.02       57.01       
C           99.62       59.74       59.04       
C           99.67       59.7        56.44       
C           98.36       59.54       56.97       
C           97.36       59.35       55.85       
C           98.33       59.32       54.64       
N           99.62       59.57       55.01       
C           95.97       59.25       55.77       
C           94.96       59.71       56.79       
N           93.68       59.54       56.31       
C           93.8        58.87       55.12       
C           95.32       58.05       53.53       
C           95.1        58.71       54.76       
C           98.34       59.59       58.37       
O           95.2        60.24       57.84       
O           98.11       59.34       53.42       
C           92.47       59.74       57.05       
C           100.79      59.4        54.07       
H           101.66      59.65       54.62       
H           100.91883   58.38364    53.69781    
H           100.65      60.16       53.36       
H           91.78       60.32       56.5        
H           92.03707    58.84527    57.49736    
H           92.66       60.5        57.81       
H           94.42       56.84       51.99       
H           96.26       58.0        53.07       
H           97.42       59.47       58.91       
H           99.63       59.75       60.12       
C           94.27       57.48       52.87       
N           92.75       58.34       54.46       
C           93.0        57.56       53.46       
C           104.37      60.91       59.63       
C           103.58      60.77       60.7        
S           103.49      60.66       58.13       
H           101.52      60.33       61.2        
H           103.94      60.73       61.66       
C           102.2       60.47       60.37       
C           101.98      60.45       59.02       
C           114.87      63.95       61.81       
N           114.38      64.03       60.53       
C           114.06      63.4        62.8        
C           113.09      63.61       60.32       
C           112.17      63.01       61.21       
C           110.92      62.72       60.51       
C           111.24      63.05       59.05       
N           112.57      63.53       59.11       
C           109.65      62.29       60.89       
C           109.37      61.7        62.25       
N           108.08      61.32       62.33       
C           107.46      61.54       61.13       
C           107.8       62.26       58.94       
C           108.42      61.98       60.17       
C           112.69      62.87       62.5        
O           110.06      61.6        63.29       
O           110.62      62.99       58.03       
C           107.43      60.83       63.57       
C           113.21      64.09       57.97       
H           112.78      63.63       57.03       
H           113.07854   65.16936    57.89389    
H           114.3       63.81       58.06       
H           106.85      59.97       63.3        
H           106.87446   61.65276    64.02006    
H           108.24      60.49       64.28       
H           106.07      62.02       57.71       
H           108.33      62.89       58.22       
H           112.15      62.56       63.31       
H           114.43      63.29       63.78       
C           106.48      61.88       58.69       
N           106.25      61.11       60.9        
C           105.74      61.27       59.67       
C           118.44      65.33       60.91       
C           118.46      65.21       62.27       
S           116.84      64.98       60.29       
H           117.08      64.25       63.84       
H           119.3       65.4        62.92       
C           117.21      64.58       62.8        
C           116.22      64.47       61.83       
C           125.57      68.75       53.23       
N           126.06      68.2        54.35       
C           124.22      68.99       53.05       
C           125.11      67.8        55.23       
C           123.7       67.88       55.13       
C           123.19      67.22       56.37       
C           124.45      66.94       57.23       
N           125.56      67.34       56.48       
C           121.88      66.96       56.72       
C           120.69      66.86       55.8        
N           119.57      66.56       56.51       
C           119.89      66.3        57.85       
C           121.65      66.28       59.33       
C           121.27      66.54       58.02       
C           123.24      68.6        54.02       
O           120.68      67.22       54.67       
O           124.59      66.4        58.32       
C           118.29      66.31       55.84       
C           126.85      67.63       57.08       
H           126.9       67.33       58.13       
H           127.70603   67.15287    56.60287    
H           126.97      68.77       57.06       
H           117.4       66.46       56.47       
H           118.33488   65.29275    55.45105    
H           118.23      67.08       55.04       
H           121.06      65.59       61.3        
H           122.71      66.33       59.62       
H           122.2       68.77       53.8        
H           123.86      69.49       52.22       
C           120.7       65.89       60.29       
N           118.99      66.04       58.75       
C           119.41      65.74       59.93       
C           127.79      69.01       49.95       
C           128.63      68.67       50.98       
S           126.25      69.36       50.63       
H           128.45      68.16       53.15       
H           129.71      68.46       50.92       
C           127.97      68.57       52.26       
C           126.64      68.94       52.26       
C           128.56      72.03       39.15       
N           129.62      71.5        39.83       
C           127.25      72.2        39.81       
C           129.35      70.98       41.05       
C           128.24      71.08       41.81       
C           128.49      70.56       43.19       
C           129.91      70.14       43.03       
N           130.31      70.39       41.72       
C           127.74      70.41       44.35       
C           126.26      70.65       44.49       
N           125.83      70.47       45.77       
C           126.89      70.07       46.55       
C           129.25      69.62       46.47       
C           128.1       69.96       45.76       
C           127.2       71.69       41.15       
O           125.43      70.98       43.68       
O           130.6       69.52       43.83       
C           124.44      70.35       46.08       
C           131.55      69.87       41.12       
H           131.97      70.55       40.35       
H           131.31605   68.89035    40.70328    
H           132.25      69.65       41.94       
H           123.84      71.0        45.54       
H           124.13304   69.31491    45.93009    
H           124.34      70.61       47.16       
H           130.08      68.89       48.24       
H           130.25      69.52       45.93       
H           126.37      71.96       41.71       
H           126.45      72.76       39.38       
C           129.15      69.3        47.82       
N           126.79      69.74       47.84       
C           127.93      69.4        48.56       
C           130.13      73.03       35.74       
C           128.8       73.43       35.74       
S           130.47      72.25       37.26       
H           127.08      73.31       37.02       
H           128.28      73.97       34.95       
C           128.12      73.07       36.91       
C           128.88      72.41       37.8        
C           136.56      74.57       26.76       
N           137.04      74.1        27.84       
C           135.19      74.77       26.64       
C           136.23      74.05       28.89       
C           134.8       74.26       28.92       
C           134.43      74.04       30.33       
C           135.77      73.45       30.93       
N           136.73      73.43       30.0        
C           133.26      74.16       31.05       
C           132.02      74.84       30.49       
N           131.07      74.95       31.45       
C           131.43      74.31       32.63       
C           133.26      73.09       33.64       
C           132.75      73.81       32.47       
C           134.34      74.59       27.69       
O           131.96      75.51       29.44       
O           135.87      73.14       32.1        
C           129.81      75.62       31.29       
C           138.15      73.27       30.28       
H           138.77      73.19       29.39       
H           138.5418    74.12752    30.82704    
H           138.2       72.31       30.89       
H           129.53      76.22       32.16       
H           129.0273    74.90253    31.0436     
H           129.88      76.35       30.45       
H           132.7       72.14       35.54       
H           134.17      72.64       33.59       
H           133.26      74.69       27.54       
H           134.75      75.14       25.7        
C           132.37      72.75       34.66       
N           130.63      74.06       33.58       
C           131.12      73.35       34.63       
C           139.68      74.37       24.58       
C           138.63      74.71       23.7        
S           139.16      74.38       26.23       
H           136.44      75.12       23.92       
H           138.68      74.66       22.64       
C           137.41      74.89       24.43       
C           137.54      74.66       25.74       
H           85.35       32.9        -9.58       
H           140.71      74.27       24.25       
