392

C           92.4        18.01       29.33       
N           91.54       17.06       28.97       
C           93.13       18.7        28.35       
C           91.49       16.7        27.68       
C           92.34       17.16       26.63       
C           92.03       16.31       25.41       
C           90.69       15.68       25.85       
N           90.48       15.9        27.16       
C           92.53       16.28       24.14       
C           93.59       17.26       23.66       
N           93.96       16.96       22.4        
C           93.07       16.01       21.96       
C           91.08       14.69       22.44       
C           92.08       15.65       22.94       
C           93.12       18.2        27.02       
O           94.15       18.12       24.29       
O           89.91       14.96       25.33       
C           95.2        17.34       21.73       
C           89.24       15.7        27.93       
H           88.33       15.69       27.32       
H           89.21169    14.70901    28.38303    
H           89.11       16.58       28.56       
H           95.19       17.12       20.63       
H           96.11801    16.93928    22.15986    
H           95.25       18.43       21.8        
H           90.46       13.41       20.8        
H           90.3        14.4        23.14       
H           93.56       18.86       26.29       
H           93.71       19.62       28.52       
C           91.19       14.14       21.15       
N           93.23       15.37       20.83       
C           92.24       14.5        20.36       
C           91.45       18.85       33.07       
C           92.49       19.7        32.72       
S           91.04       17.84       31.76       
H           93.67       20.19       30.86       
H           92.88       20.34       33.43       
C           92.92       19.57       31.36       
C           92.28       18.5        30.72       
C           87.21       14.93       42.37       
N           87.74       16.14       42.48       
C           87.06       14.24       41.16       
C           88.18       16.68       41.32       
C           88.02       16.15       40.03       
C           88.63       17.06       39.09       
C           89.24       18.08       39.95       
N           88.86       17.89       41.27       
C           88.79       17.03       37.69       
C           87.89       16.08       36.83       
N           88.12       16.48       35.59       
C           89.18       17.4        35.47       
C           90.73       18.72       36.74       
C           89.64       17.8        36.76       
C           87.46       14.84       39.99       
O           86.99       15.35       37.03       
O           89.85       19.08       39.62       
C           87.3        16.12       34.39       
C           89.47       18.56       42.38       
H           90.22       19.2        41.96       
H           88.75461    19.21288    42.88008    
H           89.86       17.74       42.98       
H           87.94       16.07       33.53       
H           86.47867    16.81885    34.2315     
H           86.8        15.21       34.58       
H           92.15       19.65       35.57       
H           91.15       19.11       37.68       
H           87.35       14.29       39.06       
H           86.68       13.27       41.14       
C           91.24       19.06       35.52       
N           89.73       17.73       34.32       
C           90.75       18.63       34.34       
C           86.53       14.49       46.12       
C           86.02       13.35       45.49       
S           87.4        15.47       44.99       
H           85.67       12.69       43.46       
H           85.41       12.63       45.99       
C           86.22       13.33       44.08       
C           86.94       14.39       43.68       
C           84.47       17.8        56.37       
N           85.6        18.16       55.85       
C           83.47       17.02       55.72       
C           85.85       17.6        54.63       
C           85.01       16.73       53.87       
C           85.67       16.47       52.58       
C           87.0        17.35       52.76       
N           87.06       17.91       53.96       
C           85.41       15.69       51.48       
C           84.28       14.64       51.48       
N           84.3        14.0        50.26       
C           85.25       14.59       49.43       
C           86.92       16.26       49.32       
C           85.88       15.67       50.09       
C           83.79       16.43       54.45       
O           83.63       14.19       52.41       
O           87.93       17.4        51.99       
C           83.84       12.68       50.0        
C           87.85       19.02       54.34       
H           87.33       19.7        55.02       
H           88.70211    18.63972    54.90338    
H           88.2        19.48       53.43       
H           83.77       12.05       50.9        
H           82.88747    12.61602    49.47398    
H           84.64       12.11       49.4        
H           87.84       16.42       47.35       
H           87.55       16.98       49.75       
H           83.11       15.75       53.98       
H           82.49       16.77       56.13       
C           87.12       15.91       48.04       
N           85.51       14.17       48.18       
C           86.39       14.88       47.51       
C           84.29       20.13       59.44       
C           83.09       19.51       59.38       
S           85.37       19.66       58.12       
H           82.24       17.99       58.01       
H           82.26       19.7        60.01       
C           83.05       18.56       58.31       
C           84.2        18.52       57.58       
C           87.18       26.91       67.56       
N           87.76       27.08       66.36       
C           86.05       26.12       67.69       
C           87.26       26.38       65.37       
C           86.27       25.34       65.43       
C           86.16       24.72       64.09       
C           87.19       25.51       63.28       
N           87.71       26.5        64.11       
C           85.35       23.75       63.57       
C           83.98       23.36       64.21       
N           83.39       22.29       63.43       
C           84.23       22.13       62.35       
C           86.22       22.78       61.29       
C           85.36       22.91       62.35       
C           85.63       25.24       66.68       
O           83.31       23.7        65.17       
O           87.41       25.49       62.13       
C           82.05       21.74       63.61       
C           88.71       27.39       63.53       
H           88.78       27.28       62.46       
H           88.47302    28.44944    63.62758    
H           89.69       27.11       63.89       
H           81.73       22.0        64.69       
H           81.28412    22.14118    62.94624    
H           82.1        20.69       63.46       
H           86.66       21.8        59.45       
H           87.16       23.37       61.23       
H           84.78       24.58       66.77       
H           85.56       26.16       68.61       
C           85.9        21.9        60.24       
N           83.9        21.31       61.34       
C           84.8        21.11       60.35       
C           87.76       29.17       70.72       
C           88.58       29.73       69.75       
S           86.87       27.73       70.21       
H           89.09       29.0        67.62       
H           89.18       30.57       69.84       
C           88.48       28.84       68.55       
C           87.54       27.85       68.61       
C           87.85       29.67       81.61       
N           88.96       29.78       80.89       
C           86.59       29.76       81.09       
C           88.73       29.91       79.58       
C           87.51       29.84       78.85       
C           87.79       29.87       77.37       
C           89.34       29.88       77.43       
N           89.78       29.97       78.68       
C           87.06       29.69       76.19       
C           85.67       29.05       76.05       
N           85.41       28.86       74.7        
C           86.41       29.41       73.97       
C           88.43       30.49       74.06       
C           87.41       29.95       74.77       
C           86.33       29.77       79.68       
O           84.94       28.75       77.0        
O           90.15       29.72       76.43       
C           84.16       28.34       74.14       
C           91.14       30.44       78.93       
H           91.1        30.96       79.89       
H           91.81092    29.58737    79.03483    
H           91.41       31.18       78.16       
H           84.29       27.74       73.26       
H           83.46141    29.15625    73.95616    
H           83.69       27.76       74.88       
H           89.53       30.63       72.2        
H           89.23       30.96       74.6        
H           85.34       29.71       79.3        
H           85.73       29.75       81.74       
C           88.64       30.31       72.72       
N           86.42       29.23       72.65       
C           87.6        29.55       72.06       
C           88.92       29.45       85.29       
C           87.65       28.85       85.21       
S           89.52       30.04       83.79       
H           86.16       28.64       83.58       
H           87.15       28.43       86.03       
C           87.14       29.06       83.93       
C           88.07       29.55       83.06       
C           92.9        30.44       95.7        
N           93.68       31.02       94.69       
C           91.75       29.73       95.49       
C           93.19       30.79       93.47       
C           91.97       30.11       93.08       
C           91.76       30.24       91.59       
C           93.05       30.99       91.21       
N           93.77       31.3        92.35       
C           90.86       29.74       90.63       
C           89.66       28.85       91.01       
N           88.99       28.46       89.86       
C           89.53       29.03       88.76       
C           91.3        30.39       88.06       
C           90.67       29.79       89.15       
C           91.29       29.55       94.18       
O           89.23       28.57       92.1        
O           93.59       31.15       90.04       
C           87.96       27.44       89.84       
C           95.05       32.1        92.42       
H           95.95       31.52       92.1        
H           95.05714    33.05716    91.89856    
H           95.25       32.32       93.49       
H           87.41       27.44       88.95       
H           88.41148    26.45104    89.91883    
H           87.18       27.54       90.58       
H           91.3        30.71       85.95       
H           92.22       30.95       88.17       
H           90.44       28.92       94.05       
H           91.27       29.39       96.3        
C           90.75       30.3        86.75       
N           88.95       28.9        87.56       
C           89.63       29.5        86.53       
C           95.41       31.01       98.58       
C           94.29       30.39       99.1        
S           95.24       31.18       96.84       
H           92.33       29.67       98.3        
H           94.14       30.28       100.16      
C           93.29       30.2        98.09       
C           93.6        30.58       96.89       
C           105.22      31.31       103.59      
N           105.06      31.47       102.22      
C           104.1       31.28       104.45      
C           103.8       31.51       101.76      
C           102.61      31.53       102.47      
C           101.52      31.58       101.47      
C           102.23      31.84       100.2       
N           103.58      31.7        100.37      
C           100.19      31.29       101.56      
C           99.44       30.7        102.8       
N           98.22       30.28       102.47      
C           97.91       30.73       101.14      
C           98.8        32.24       99.48       
C           99.05       31.5        100.67      
C           102.81      31.44       103.89      
O           99.89       30.35       103.87      
O           101.79      31.9        99.07       
C           97.5        29.26       103.15      
C           104.58      32.32       99.52       
H           104.33      32.29       98.42       
H           104.94876   33.30572    99.80366    
H           105.43      31.6        99.71       
H           96.99       28.63       102.42      
H           96.71695    29.6725     103.78623   
H           98.22       28.71       103.68      
H           97.41       32.83       97.99       
H           99.55       32.89       99.11       
H           101.97      31.24       104.6       
H           104.15      30.93       105.49      
C           97.59       32.18       98.85       
N           96.77       30.71       100.57      
C           96.63       31.3        99.31       
C           109.02      30.76       104.11      
C           108.4       30.11       105.16      
S           107.93      31.49       103.06      
H           106.21      29.76       105.76      
H           108.86      29.43       105.85      
C           106.96      30.24       105.08      
C           106.59      31.03       104.02      
C           119.15      29.99       99.58       
N           119.07      29.79       100.94      
C           118.05      30.31       98.81       
C           117.77      29.92       101.39      
C           116.54      30.19       100.7       
C           115.44      30.18       101.66      
C           116.15      29.79       102.9       
N           117.5       29.62       102.7       
C           114.1       30.6        101.64      
C           113.54      31.28       100.46      
N           112.21      31.65       100.76      
C           111.87      31.22       101.99      
C           112.68      30.0        103.89      
C           113.0       30.6        102.63      
C           116.78      30.34       99.36       
O           114.07      31.57       99.4        
O           115.69      29.57       104.01      
C           111.35      32.12       99.61       
C           118.43      29.0        103.64      
H           119.11      28.43       102.95      
H           118.96158   29.74967    104.2261    
H           117.94      28.31       104.33      
H           110.53      32.74       100.01      
H           110.96259   31.21827    99.13576    
H           111.89      32.76       98.89       
H           111.1       29.5        105.26      
H           113.45      29.37       104.26      
H           115.97      30.48       98.66       
H           118.19      30.57       97.73       
C           111.38      29.95       104.32      
N           110.63      31.35       102.52      
C           110.38      30.7        103.66      
C           122.48      30.91       97.91       
C           122.79      30.06       98.88       
S           120.73      31.18       97.73       
H           121.61      29.17       100.64      
H           123.85      29.81       99.16       
C           121.64      29.65       99.65       
C           120.47      30.11       99.07       
C           128.78      35.04       89.56       
N           129.12      33.91       90.22       
C           127.59      35.61       89.87       
C           128.34      33.47       91.25       
C           127.14      34.09       91.73       
C           126.65      33.36       92.88       
C           127.78      32.28       93.14       
N           128.7       32.39       92.09       
C           125.56      33.49       93.77       
C           124.6       34.67       93.85       
N           123.58      34.28       94.7        
C           123.83      33.07       95.26       
C           125.37      31.26       95.35       
C           125.02      32.55       94.79       
C           126.78      35.19       90.95       
O           124.51      35.77       93.28       
O           127.92      31.37       93.96       
C           122.47      35.08       95.22       
C           129.81      31.47       91.95       
H           130.78      32.03       91.96       
H           129.63944   30.79487    91.11142    
H           129.99      30.88       92.88       
H           121.47      34.69       95.01       
H           122.59343   35.33411    96.27275    
H           122.5       36.04       94.74       
H           124.91      29.78       96.81       
H           126.04      30.61       94.89       
H           125.83      35.7        91.16       
H           127.27      36.58       89.42       
C           124.63      30.77       96.43       
N           123.12      32.51       96.19       
C           123.45      31.42       96.89       
C           131.79      35.76       87.15       
C           130.85      36.63       86.82       
S           131.27      34.7        88.4        
H           128.82      37.12       87.51       
H           130.92      37.34       86.03       
C           129.65      36.47       87.62       
C           129.76      35.48       88.55       
C           141.17      35.13       81.31       
N           141.11      34.33       82.37       
C           140.34      36.16       81.04       
C           140.04      34.45       83.09       
C           139.03      35.44       82.91       
C           138.04      35.23       84.05       
C           138.68      34.24       84.95       
N           139.81      33.78       84.28       
C           136.69      35.66       84.28       
C           136.08      36.66       83.26       
N           134.73      36.8        83.6        
C           134.45      36.09       84.78       
C           135.37      34.88       86.48       
C           135.6       35.42       85.26       
C           139.23      36.39       81.9        
O           136.46      37.21       82.31       
O           138.26      33.65       85.97       
C           133.71      37.5        82.81       
C           140.7       32.71       84.82       
H           140.71      32.7        85.86       
H           140.34685   31.78905    84.35606    
H           141.71      32.81       84.44       
H           133.05      38.03       83.45       
H           133.25481   36.79271    82.11671    
H           134.34      38.27       82.27       
H           133.99      34.39       88.02       
H           136.15      34.27       86.91       
H           138.61      37.28       81.73       
H           140.49      36.83       80.18       
C           134.14      34.92       87.06       
N           133.21      36.19       85.26       
C           133.07      35.62       86.49       
C           144.07      33.6        79.16       
C           143.61      34.7        78.54       
S           143.32      33.53       80.71       
H           142.04      36.21       78.84       
H           143.95      35.05       77.6        
C           142.56      35.35       79.2        
C           142.27      34.81       80.41       
H           92.41       13.94       19.49       
H           144.62      32.78       78.71       
