392

C           89.6        23.37       14.74       
N           88.51       22.81       14.43       
C           90.7        23.37       13.88       
C           88.39       22.26       13.28       
C           89.36       22.2        12.3        
C           88.9        21.4        11.12       
C           87.46       21.1        11.55       
N           87.29       21.55       12.87       
C           89.51       20.92       9.98        
C           90.66       21.57       9.23        
N           90.94       20.83       8.15        
C           89.94       19.89       7.9         
C           88.19       18.78       9.01        
C           89.14       19.8        9.05        
C           90.57       22.85       12.61       
O           91.17       22.61       9.58        
O           86.53       20.61       10.92       
C           92.16       21.1        7.33        
C           86.01       21.45       13.58       
H           85.13       21.27       12.9        
H           86.01       20.66104    14.33209    
H           85.84       22.37       14.13       
H           91.88       21.22       6.26        
H           92.96022    20.36408    7.40859     
H           92.36       22.14       7.6         
H           87.47       17.09       7.95        
H           87.5        18.66       9.87        
H           91.43       22.84       11.92       
H           91.58       23.93       14.08       
C           88.1        17.98       7.86        
N           89.96       19.07       6.84        
C           88.97       18.12       6.87        
C           89.11       24.98       18.21       
C           90.27       25.47       17.72       
S           88.34       23.97       17.09       
H           91.5        25.24       15.91       
H           90.91       26.22       18.15       
C           90.63       24.85       16.46       
C           89.63       24.13       15.96       
C           83.84       24.21       27.8        
N           84.92       25.05       27.79       
C           83.42       23.58       26.7        
C           85.44       25.2        26.62       
C           84.95       24.67       25.32       
C           85.9        25.21       24.3        
C           87.02       25.92       25.06       
N           86.67       25.93       26.41       
C           85.97       25.04       22.88       
C           84.87       24.48       22.08       
N           85.3        24.3        20.87       
C           86.6        24.72       20.63       
C           88.36       25.83       21.76       
C           87.03       25.29       21.87       
C           83.89       23.82       25.39       
O           83.77       24.06       22.4        
O           88.09       26.41       24.77       
C           84.43       23.63       19.85       
C           87.38       26.56       27.55       
H           86.59       27.05       28.08       
H           87.90077    25.89341    28.23742    
H           88.01       27.36       27.12       
H           84.98       22.82       19.41       
H           84.09038    24.37292    19.12831    
H           83.61       23.08       20.22       
H           89.95       26.3        20.43       
H           88.84       26.41       22.56       
H           83.53       23.31       24.57       
H           82.55       22.94       26.82       
C           89.01       25.81       20.53       
N           87.16       24.83       19.51       
C           88.42       25.26       19.45       
C           82.83       24.07       31.57       
C           81.83       23.53       30.83       
S           84.06       24.54       30.44       
H           81.3        23.02       28.71       
H           80.9        23.29       31.26       
C           82.03       23.44       29.38       
C           83.2        24.05       29.02       
C           82.53       26.25       42.41       
N           83.69       26.04       41.77       
C           81.32       25.9        41.82       
C           83.65       25.72       40.5        
C           82.5        25.51       39.7        
C           82.97       25.2        38.3        
C           84.47       25.12       38.45       
N           84.81       25.46       39.75       
C           82.39       24.98       37.11       
C           80.84       25.07       37.0        
N           80.47       24.6        35.71       
C           81.64       24.48       34.91       
C           83.97       24.84       34.97       
C           82.75       24.76       35.69       
C           81.23       25.6        40.5        
O           79.94       25.41       37.76       
O           85.37       24.84       37.7        
C           79.13       24.41       35.26       
C           86.19       25.88       40.13       
H           86.97       25.3        39.51       
H           86.31131    26.94328    39.92305    
H           86.4        25.63       41.17       
H           78.86       24.88       34.31       
H           78.90238    23.35013    35.14619    
H           78.42       25.01       35.89       
H           84.93       24.61       33.08       
H           84.88       25.02       35.5        
H           80.34       25.46       39.98       
H           80.43       26.09       42.43       
C           84.02       24.61       33.63       
N           81.64       24.33       33.59       
C           82.85       24.35       32.96       
C           83.95       27.97       45.75       
C           82.76       27.38       46.11       
S           84.19       27.68       44.0        
H           81.04       26.37       45.05       
H           82.27       27.6        47.02       
C           82.04       26.86       44.95       
C           82.7        26.81       43.74       
C           89.92       34.32       52.35       
N           90.28       34.25       51.06       
C           88.78       33.72       52.85       
C           89.37       33.69       50.19       
C           88.29       32.93       50.62       
C           87.66       32.31       49.42       
C           88.46       32.78       48.27       
N           89.5        33.55       48.77       
C           86.53       31.51       49.24       
C           85.42       31.35       50.25       
N           84.55       30.51       49.71       
C           84.94       30.13       48.45       
C           86.73       30.22       46.92       
C           86.17       30.64       48.15       
C           87.93       33.02       51.96       
O           85.2        31.94       51.27       
O           88.2        32.7        47.12       
C           83.32       30.08       50.37       
C           90.53       34.11       47.96       
H           90.81       33.44       47.18       
H           90.23711    35.07653    47.54996    
H           91.36       34.22       48.63       
H           83.46       30.14       51.44       
H           82.42355    30.55027    49.96586    
H           83.27       29.03       50.14       
H           86.49       28.96       45.23       
H           87.76       30.52       46.62       
H           87.12       32.46       52.3        
H           88.46       33.8        53.88       
C           86.08       29.22       46.18       
N           84.24       29.26       47.69       
C           84.83       28.83       46.55       
C           92.03       35.97       55.21       
C           92.69       36.26       54.06       
S           90.55       35.18       54.96       
H           92.34       35.82       51.91       
H           93.7        36.7        53.9        
C           91.97       35.75       52.94       
C           90.85       35.06       53.27       
C           95.37       37.39       65.57       
N           95.83       38.23       64.6        
C           94.49       36.34       65.26       
C           95.39       38.12       63.35       
C           94.43       37.18       62.91       
C           94.18       37.39       61.48       
C           95.1        38.48       61.1        
N           95.64       38.96       62.31       
C           93.33       36.89       60.53       
C           92.09       36.1        60.95       
N           91.38       35.87       59.85       
C           92.01       36.27       58.71       
C           94.08       37.31       58.03       
C           93.3        36.89       59.08       
C           93.99       36.31       63.95       
O           91.68       35.62       62.03       
O           95.23       39.11       60.05       
C           90.02       35.39       59.85       
C           96.15       40.27       62.37       
H           96.34       40.64       61.38       
H           95.49186    40.95585    62.90344    
H           97.08       40.17       62.93       
H           89.93       34.67       59.03       
H           89.29786    36.20155    59.76059    
H           89.86       34.88       60.8        
H           94.15       37.6        55.96       
H           95.05       37.74       58.17       
H           93.39       35.49       63.66       
H           94.16       35.57       65.98       
C           93.64       37.08       56.72       
N           91.66       35.93       57.48       
C           92.48       36.31       56.5        
C           96.66       37.39       69.29       
C           97.3        38.32       68.57       
S           95.49       36.57       68.23       
H           97.35       39.04       66.53       
H           98.2        38.78       68.85       
C           96.85       38.44       67.22       
C           95.9        37.56       66.89       
C           99.0        32.86       79.17       
N           99.61       34.03       78.79       
C           98.13       32.24       78.3        
C           99.3        34.54       77.6        
C           98.42       34.01       76.67       
C           98.43       34.9        75.5        
C           99.45       35.97       75.89       
N           99.93       35.74       77.13       
C           97.7        34.83       74.32       
C           96.44       33.99       73.98       
N           95.89       34.44       72.79       
C           96.67       35.42       72.25       
C           98.57       36.74       72.5        
C           97.81       35.7        73.08       
C           97.88       32.73       77.0        
O           95.83       33.2        74.69       
O           99.98       36.79       75.2        
C           94.54       34.11       72.29       
C           100.91      36.6        77.73       
H           101.79      36.78       77.04       
H           100.42656   37.38915    78.30587    
H           101.39      35.95       78.43       
H           94.06       34.94       71.74       
H           94.47648    33.17136    71.73952    
H           93.91       34.02       73.19       
H           98.87       38.21       70.98       
H           99.44       37.15       73.02       
H           97.17       32.21       76.4        
H           97.71       31.26       78.53       
C           98.22       37.4        71.31       
N           96.35       35.94       71.01       
C           97.14       36.87       70.52       
C           99.84       31.06       82.42       
C           100.52      32.23       82.45       
S           98.96       30.87       80.98       
H           100.51      34.09       81.28       
H           101.05      32.56       83.29       
C           100.27      33.04       81.3        
C           99.35       32.47       80.48       
C           102.71      21.76       87.39       
N           103.59      22.77       87.27       
C           101.4       21.88       86.89       
C           103.12      23.83       86.64       
C           101.81      24.08       86.07       
C           101.76      25.46       85.49       
C           103.18      25.95       85.66       
N           103.9       24.92       86.31       
C           100.85      26.16       84.75       
C           99.73       25.5        83.9        
N           99.22       26.48       83.11       
C           99.74       27.69       83.49       
C           101.3       28.74       84.94       
C           100.78      27.54       84.46       
C           101.0       22.97       86.14       
O           99.53       24.36       83.64       
O           103.73      26.9        85.19       
C           98.59       26.22       81.84       
C           105.31      24.98       86.66       
H           105.77      25.43       85.84       
H           105.50801   25.39069    87.65006    
H           105.67      23.96       86.63       
H           98.92       26.99       81.17       
H           97.50444    26.31805    81.847      
H           99.01       25.23       81.4        
H           101.52      30.79       84.46       
H           101.93      28.76       85.83       
H           100.02      22.93       85.73       
H           100.71      21.07       86.95       
C           101.02      29.89       84.18       
N           99.36       28.78       82.91       
C           100.09      29.93       83.2        
C           104.12      19.27       90.11       
C           102.77      19.14       90.03       
S           104.6       20.45       88.94       
H           101.06      19.85       88.84       
H           102.25      18.57       90.8        
C           102.12      19.9        89.03       
C           103.01      20.71       88.38       
C           111.81      15.6        97.36       
N           112.26      16.35       96.3        
C           110.54      15.31       97.53       
C           111.35      16.88       95.5        
C           109.94      16.59       95.57       
C           109.3       17.26       94.45       
C           110.42      18.05       93.79       
N           111.58      17.78       94.48       
C           107.93      17.37       93.96       
C           106.73      16.91       94.75       
N           105.56      17.25       94.13       
C           105.83      17.82       92.92       
C           107.48      18.63       91.54       
C           107.24      17.93       92.75       
C           109.55      15.72       96.6        
O           106.72      16.37       95.81       
O           110.37      18.69       92.71       
C           104.24      17.06       94.66       
C           112.85      18.5        94.38       
H           113.39      18.34       95.29       
H           113.48987   18.19398    93.55234    
H           112.56      19.54       94.32       
H           103.49      16.75       93.91       
H           103.9197    17.93355    95.22781    
H           104.38      16.22       95.36       
H           106.74      19.53       89.81       
H           108.5       18.95       91.27       
H           108.53      15.37       96.64       
H           110.22      14.69       98.39       
C           106.46      19.02       90.73       
N           104.78      18.15       92.09       
C           105.17      18.71       90.95       
C           114.99      14.11       99.05       
C           113.95      13.64       99.7        
S           114.53      15.24       97.84       
H           111.82      13.71       99.52       
H           113.91      12.87       100.44      
C           112.74      14.12       99.21       
C           112.83      14.95       98.13       
C           125.39      11.44       101.14      
N           124.51      10.38       101.06      
C           125.06      12.72       100.81      
C           123.36      10.64       100.42      
C           122.91      11.93       100.03      
C           121.51      11.83       99.64       
C           121.25      10.34       99.84       
N           122.35      9.67        100.29      
C           120.47      12.72       99.19       
C           120.82      14.11       98.66       
N           119.6       14.71       98.34       
C           118.5       13.91       98.71       
C           117.89      11.77       99.53       
C           118.96      12.68       99.2        
C           123.78      12.98       100.25      
O           121.9       14.68       98.48       
O           120.19      9.75        99.71       
C           119.56      15.81       97.39       
C           122.37      8.33        100.88      
H           122.66      8.4         101.92      
H           122.81775   7.54283     100.27338   
H           121.33      8.04        101.05      
H           118.94      15.66       96.57       
H           119.14593   16.68899    97.88398    
H           120.57      16.03       97.07       
H           115.8       11.55       99.93       
H           118.15      10.77       99.77       
H           123.45      14.01       100.16      
H           125.69      13.59       101.08      
C           116.61      12.24       99.64       
N           117.23      14.29       98.54       
C           116.32      13.48       99.17       
C           128.46      9.61        102.63      
C           128.88      10.94       102.45      
S           126.87      9.28        101.98      
H           127.9       12.75       101.75      
H           129.86      11.35       102.65      
C           127.82      11.68       101.82      
C           126.66      10.99       101.63      
C           134.61      4.19        110.06      
N           133.33      3.91        109.81      
C           135.19      5.14        109.26      
C           132.71      4.5         108.79      
C           133.18      5.47        107.89      
C           132.04      5.75        106.95      
C           130.93      4.9         107.43      
N           131.39      4.18        108.53      
C           131.91      6.65        105.93      
C           132.95      7.76        105.73      
N           132.38      8.76        104.92      
C           131.2       8.33        104.47      
C           129.56      6.63        104.61      
C           130.83      7.07        105.05      
C           134.52      5.76        108.17      
O           133.99      7.96        106.3       
O           129.81      4.9         107.05      
C           132.97      10.1        104.74      
C           130.74      3.13        109.22      
H           131.36      2.8         109.98      
H           129.79185   3.34772     109.71163   
H           130.72      2.35        108.5       
H           132.18      10.79       104.94      
H           133.4326    10.29625    103.77274   
H           133.7       10.32       105.61      
H           127.7       7.13        103.58      
H           129.23      5.67        104.97      
H           135.13      6.45        107.6       
H           136.18      5.6         109.53      
C           128.72      7.52        103.82      
N           130.46      9.11        103.74      
C           129.24      8.66        103.36      
C           134.89      3.23        113.83      
C           136.12      3.58        113.46      
S           133.82      3.13        112.41      
H           137.13      4.27        111.67      
H           136.8       3.88        114.21      
C           136.24      3.87        112.08      
C           135.1       3.7         111.32      
H           88.9        17.6        5.96        
H           134.58      3.03        114.84      
