392

C           91.46       28.26       27.21       
N           90.97       26.96       27.42       
C           91.52       28.8        25.96       
C           90.82       26.21       26.38       
C           90.91       26.6        25.02       
C           90.64       25.44       24.18       
C           90.55       24.32       25.23       
N           90.73       24.87       26.5        
C           90.47       25.18       22.79       
C           90.28       26.3        21.71       
N           89.97       25.73       20.48       
C           89.93       24.3        20.65       
C           90.51       22.51       22.14       
C           90.36       23.95       21.96       
C           91.19       27.98       24.9        
O           90.3        27.46       21.89       
O           90.13       23.13       25.12       
C           89.49       26.45       19.41       
C           91.4        24.23       27.55       
H           91.02       23.23       27.67       
H           92.48098    24.20117    27.41308    
H           91.16       24.79       28.45       
H           88.54       26.05       19.04       
H           90.2174     26.69018    18.63456    
H           89.29       27.46       19.81       
H           90.51       20.63       21.13       
H           90.86       22.11       23.03       
H           91.15       28.41       23.85       
H           91.81       29.84       25.76       
C           90.24       21.66       21.06       
N           89.64       23.48       19.64       
C           89.77       22.15       19.86       
C           90.98       30.5        30.25       
C           92.05       30.99       29.62       
S           90.25       29.16       29.51       
H           93.0        30.62       27.68       
H           92.51       31.94       29.91       
C           92.23       30.3        28.39       
C           91.5        29.13       28.33       
C           85.06       33.4        39.2        
N           86.36       33.85       39.12       
C           84.47       32.57       38.21       
C           87.07       33.31       38.12       
C           86.61       32.43       37.06       
C           87.86       32.19       36.25       
C           88.95       33.0        36.92       
N           88.42       33.56       38.06       
C           88.13       31.43       35.13       
C           87.38       30.13       34.93       
N           87.86       29.55       33.78       
C           88.85       30.35       33.18       
C           90.13       32.31       33.47       
C           89.11       31.47       34.01       
C           85.26       32.03       37.1        
O           86.5        29.69       35.65       
O           90.15       33.01       36.71       
C           87.35       28.27       33.28       
C           89.22       33.8        39.27       
H           90.14       33.3        39.15       
H           89.51628    34.83355    39.44915    
H           88.68       33.55       40.13       
H           88.19       27.6        33.08       
H           86.77123    28.3467     32.35954    
H           86.73       27.79       34.06       
H           91.57       32.5        31.94       
H           90.43       33.15       34.07       
H           84.73       31.37       36.33       
H           83.44       32.26       38.3        
C           90.77       31.92       32.3        
N           89.38       30.05       31.94       
C           90.28       30.86       31.44       
C           83.89       33.94       42.8        
C           82.8        33.89       42.06       
S           85.31       33.76       41.84       
H           82.31       33.47       39.92       
H           81.77       33.84       42.46       
C           83.04       33.67       40.67       
C           84.38       33.81       40.4        
C           83.49       34.43       53.84       
N           84.6        34.83       53.2        
C           82.31       34.09       53.17       
C           84.5        34.79       51.84       
C           83.37       34.57       51.0        
C           83.8        34.7        49.59       
C           85.3        35.14       49.78       
N           85.62       35.23       51.12       
C           83.28       34.4        48.31       
C           81.83       33.94       48.11       
N           81.54       33.77       46.79       
C           82.74       33.99       46.13       
C           85.01       34.44       46.34       
C           83.81       34.36       46.96       
C           82.22       34.24       51.75       
O           81.09       33.56       49.0        
O           86.15       35.36       48.91       
C           80.29       33.39       46.23       
C           87.01       35.17       51.58       
H           87.61       34.63       50.84       
H           87.45615    36.16145    51.6579     
H           87.04       34.63       52.51       
H           80.23       33.68       45.22       
H           80.13617    32.31318    46.29992    
H           79.51       33.88       46.87       
H           86.0        34.29       44.3        
H           85.95       34.59       46.88       
H           81.3        33.97       51.25       
H           81.38       33.75       53.71       
C           85.05       34.18       44.92       
N           82.77       33.8        44.82       
C           83.91       34.1        44.23       
C           84.2        35.44       57.51       
C           82.97       34.83       57.54       
S           84.89       35.5        55.93       
H           81.59       33.96       56.02       
H           82.38       34.63       58.42       
C           82.58       34.41       56.19       
C           83.55       34.68       55.28       
C           88.97       40.99       65.65       
N           89.24       41.41       64.4        
C           88.33       39.82       65.94       
C           88.73       40.61       63.42       
C           87.96       39.41       63.62       
C           87.55       38.89       62.27       
C           88.27       39.79       61.35       
N           88.91       40.76       62.11       
C           86.63       37.98       61.78       
C           85.65       37.28       62.71       
N           84.73       36.54       61.98       
C           85.13       36.54       60.67       
C           86.75       37.55       59.09       
C           86.3        37.4        60.43       
C           87.76       39.07       64.94       
O           85.49       37.45       63.95       
O           88.23       39.91       60.15       
C           83.44       36.08       62.55       
C           89.13       42.08       61.5        
H           88.94       42.89       62.18       
H           90.11248    42.13132    61.03075    
H           88.37       42.21       60.71       
H           83.57       35.7        63.49       
H           82.66287    36.82149    62.73537    
H           83.03       35.32       61.82       
H           86.26       37.05       57.09       
H           87.56       38.13       58.8        
H           87.21       38.22       65.19       
H           88.22       39.47       66.93       
C           86.02       36.91       58.13       
N           84.41       35.95       59.78       
C           84.91       36.11       58.52       
C           89.76       43.15       68.72       
C           90.57       43.55       67.72       
S           88.69       41.92       68.22       
H           90.97       43.08       65.64       
H           91.13       44.46       67.83       
C           90.44       42.87       66.54       
C           89.52       41.88       66.66       
C           89.14       46.02       79.43       
N           89.71       46.99       78.59       
C           88.67       44.81       78.99       
C           89.66       46.65       77.27       
C           89.17       45.47       76.61       
C           89.37       45.6        75.17       
C           90.28       46.83       75.1        
N           90.29       47.42       76.32       
C           88.87       44.82       74.06       
C           87.67       43.92       74.14       
N           87.43       43.28       72.96       
C           88.47       43.63       72.1        
C           90.29       45.22       71.86       
C           89.26       44.69       72.66       
C           88.46       44.62       77.54       
O           86.83       43.86       75.05       
O           90.86       47.33       74.16       
C           86.35       42.37       72.71       
C           90.92       48.71       76.64       
H           91.53       49.12       75.77       
H           90.14989    49.38827    77.00739    
H           91.58       48.42       77.39       
H           86.66       41.85       71.82       
H           85.4481     42.88244    72.37521    
H           86.17       41.72       73.6        
H           91.17       45.21       69.87       
H           90.85       46.03       72.24       
H           87.9        43.85       77.22       
H           88.23       44.13       79.7        
C           90.43       44.77       70.5        
N           88.6        43.2        70.8        
C           89.63       43.76       70.03       
C           90.32       46.2        83.11       
C           90.23       47.48       82.69       
S           89.75       45.03       81.91       
H           89.78       48.49       80.85       
H           90.81       48.29       83.15       
C           89.78       47.54       81.36       
C           89.36       46.38       80.8        
C           96.3        40.75       90.62       
N           96.69       41.94       90.18       
C           95.09       40.17       90.14       
C           95.8        42.67       89.47       
C           94.61       42.24       88.9        
C           94.15       43.29       87.98       
C           95.24       44.38       88.12       
N           96.16       43.89       89.06       
C           93.13       43.36       87.06       
C           92.31       42.11       86.61       
N           91.41       42.46       85.62       
C           91.51       43.84       85.36       
C           92.5        45.81       86.04       
C           92.53       44.43       86.19       
C           94.27       40.96       89.32       
O           92.42       41.05       87.04       
O           95.35       45.49       87.61       
C           90.47       41.4        85.02       
C           97.4        44.68       89.36       
H           97.5        45.48       88.6        
H           97.4        45.04389    90.38746    
H           98.23       43.97       89.19       
H           89.44       41.83       84.87       
H           90.75674    41.00574    84.0451     
H           90.48       40.52       85.65       
H           91.88       47.54       84.93       
H           93.29       46.4        86.49       
H           93.25       40.6        89.07       
H           94.79       39.3        90.56       
C           91.71       46.46       85.11       
N           90.78       44.39       84.44       
C           90.86       45.73       84.29       
C           98.51       38.45       92.73       
C           98.72       39.66       93.29       
S           97.61       38.38       91.28       
H           97.73       41.58       92.81       
H           99.46       39.87       94.09       
C           97.83       40.56       92.65       
C           97.18       40.05       91.56       
C           102.85      28.54       95.1        
N           103.69      29.58       95.03       
C           101.6       28.7        94.59       
C           103.25      30.73       94.55       
C           101.91      31.07       94.15       
C           101.86      32.52       93.92       
C           103.22      32.99       94.33       
N           103.96      31.95       94.68       
C           100.93      33.33       93.32       
C           99.85       32.79       92.41       
N           99.11       33.88       91.88       
C           99.47       35.04       92.51       
C           101.11      35.97       93.9        
C           100.65      34.79       93.29       
C           101.16      29.91       94.05       
O           99.7        31.66       92.06       
O           103.56      34.16       94.36       
C           98.03       33.77       90.84       
C           105.38      32.0        94.85       
H           105.76      32.85       94.33       
H           105.65877   32.13242    95.8954     
H           105.78      31.05       94.42       
H           98.07       34.63       90.19       
H           97.00683    33.56825    91.15704    
H           98.36       32.92       90.2        
H           100.56      37.97       94.41       
H           102.01      36.11       94.53       
H           100.14      30.04       93.79       
H           100.87      27.93       94.73       
C           100.32      37.13       93.79       
N           98.82       36.14       92.3        
C           99.28       37.21       92.97       
C           104.63      25.82       97.39       
C           103.51      25.23       96.95       
S           104.74      27.44       96.8        
H           101.98      25.73       95.49       
H           103.22      24.21       97.29       
C           102.84      26.06       96.02       
C           103.32      27.34       95.78       
C           110.23      20.08       104.96      
N           110.89      20.53       103.87      
C           108.89      20.33       105.13      
C           110.23      21.34       103.14      
C           108.87      21.7        103.11      
C           108.6       22.41       101.84      
C           110.0       22.58       101.25      
N           110.87      21.89       102.06      
C           107.49      22.8        101.18      
C           106.12      22.21       101.61      
N           105.15      22.64       100.73      
C           105.76      23.67       100.0       
C           107.72      24.75       99.23       
C           107.16      23.8        100.12      
C           108.22      21.14       104.22      
O           105.97      21.37       102.4       
O           110.29      23.09       100.16      
C           103.74      22.28       100.87      
C           112.38      22.06       101.92      
H           112.94      22.27       102.84      
H           112.89309   21.26956    101.37224   
H           112.49      22.98       101.32      
H           103.37      22.12       99.83       
H           103.22667   23.07461    101.41146   
H           103.7       21.42       101.56      
H           107.34      26.52       97.92       
H           108.76      24.92       99.17       
H           107.19      21.25       104.25      
H           108.37      19.81       105.87      
C           106.96      25.6        98.42       
N           104.99      24.4        99.14       
C           105.57      25.41       98.44       
C           112.72      17.66       106.82      
C           111.48      17.49       107.41      
S           112.55      18.74       105.47      
H           109.52      18.36       107.32      
H           111.31      16.88       108.21      
C           110.48      18.29       106.85      
C           110.9       19.04       105.75      
C           122.53      12.56       108.43      
N           121.36      11.96       108.76      
C           122.5       13.8        107.9       
C           120.27      12.57       108.55      
C           120.06      13.82       107.84      
C           118.59      14.02       107.67      
C           117.99      12.83       108.48      
N           119.05      12.08       109.03      
C           117.74      14.98       107.06      
C           118.26      16.02       106.05      
N           117.25      16.84       105.63      
C           116.09      16.45       106.23      
C           115.14      15.07       107.77      
C           116.29      15.34       107.06      
C           121.31      14.43       107.53      
O           119.37      16.14       105.63      
O           116.78      12.61       108.64      
C           117.33      17.62       104.43      
C           118.86      10.99       109.96      
H           119.46      11.02       110.79      
H           118.96975   10.04618    109.4259    
H           117.92      10.99       110.5       
H           116.29      17.84       104.02      
H           117.78831   18.60209    104.5464    
H           117.89      17.06       103.62      
H           113.17      15.51       108.32      
H           115.2       14.22       108.38      
H           121.4       15.43       107.16      
H           123.44      14.35       107.8       
C           114.02      15.85       107.72      
N           115.04      17.24       106.25      
C           113.94      16.93       106.93      
C           125.34      10.23       109.66      
C           125.89      11.14       108.82      
S           123.57      10.32       109.65      
H           125.15      12.9        107.56      
H           126.95      11.12       108.66      
C           124.92      12.08       108.25      
C           123.69      11.82       108.74      
C           130.89      4.92        117.51      
N           129.6       4.74        117.38      
C           131.63      5.63        116.56      
C           129.0       5.28        116.3       
C           129.57      5.99        115.27      
C           128.53      6.34        114.25      
C           127.29      5.63        114.81      
N           127.6       5.14        116.07      
C           128.51      7.02        113.05      
C           129.79      7.4         112.3       
N           129.42      8.12        111.17      
C           128.01      8.19        111.15      
C           126.01      7.81        112.36      
C           127.42      7.64        112.26      
C           130.98      6.14        115.47      
O           131.01      7.17        112.54      
O           126.19      5.41        114.29      
C           130.3       8.57        110.09      
C           126.56      4.67        116.98      
H           126.84      3.71        117.4       
H           126.43301   5.2979      117.86188   
H           125.63      4.56        116.36      
H           130.01      9.52        109.69      
H           130.33343   7.84785     109.27423   
H           131.29      8.58        110.58      
H           124.24      8.58        111.37      
H           125.55      7.44        113.18      
H           131.53      6.56        114.7       
H           132.71      5.74        116.67      
C           125.32      8.46        111.33      
N           127.42      9.03        110.25      
C           126.04      9.17        110.41      
C           131.94      3.16        120.81      
C           133.11      3.75        120.31      
S           130.57      3.46        119.84      
H           133.51      5.31        118.79      
H           134.0       3.82        120.87      
C           132.84      4.55        119.17      
C           131.56      4.37        118.7       
H           89.89       21.51       18.97       
H           131.92      2.52        121.67      
