392

C           87.41       36.3        5.61        
N           86.15       35.6        5.37        
C           88.42       36.29       4.63        
C           86.01       35.11       4.16        
C           86.92       35.17       3.06        
C           86.25       34.43       1.93        
C           84.98       33.87       2.5         
N           84.9        34.41       3.75        
C           86.54       34.18       0.58        
C           87.49       35.07       -0.17       
N           87.58       34.61       -1.46       
C           86.71       33.56       -1.63       
C           85.29       32.07       -0.55       
C           86.12       33.2        -0.41       
C           88.19       35.68       3.38        
O           88.24       35.91       0.15        
O           84.1        33.26       1.96        
C           88.42       35.25       -2.45       
C           83.64       34.4        4.52        
H           82.81       34.49       3.86        
H           83.44945    33.44725    5.01402     
H           83.66       35.22       5.23        
H           88.01       35.16       -3.48       
H           89.447      34.8961     -2.35979    
H           88.21       36.33       -2.28       
H           84.55       30.61       -1.83       
H           84.68       31.71       0.23        
H           88.98       35.66       2.69        
H           89.37       36.73       4.88        
C           85.32       31.33       -1.68       
N           86.67       32.95       -2.8        
C           85.9        31.9        -2.86       
C           86.86       37.21       9.3         
C           88.15       37.66       9.04        
S           86.07       36.54       7.9         
H           89.52       37.68       7.23        
H           88.72       38.17       9.83        
C           88.46       37.48       7.64        
C           87.54       36.86       6.92        
C           80.8        39.07       18.55       
N           82.2        39.0        18.6        
C           80.12       38.74       17.35       
C           82.91       38.77       17.44       
C           82.35       38.44       16.18       
C           83.51       38.22       15.25       
C           84.74       38.49       16.07       
N           84.31       38.88       17.34       
C           83.57       37.75       13.92       
C           82.44       37.13       13.14       
N           82.88       36.88       11.87       
C           84.25       37.16       11.74       
C           85.95       38.24       12.82       
C           84.71       37.69       12.93       
C           80.96       38.49       16.21       
O           81.33       36.73       13.6        
O           85.96       38.33       15.84       
C           82.06       36.31       10.79       
C           85.15       39.36       18.39       
H           84.54       39.89       19.11       
H           85.62605    38.49891    18.85905    
H           85.91       40.09       17.96       
H           82.68       35.71       10.11       
H           81.55062    37.07408    10.20279    
H           81.23       35.72       11.28       
H           87.73       38.48       11.55       
H           86.52       38.83       13.55       
H           80.38       38.35       15.3        
H           79.09       38.68       17.17       
C           86.71       38.12       11.63       
N           84.93       37.0        10.62       
C           86.21       37.38       10.6        
C           79.53       40.28       22.13       
C           78.45       40.25       21.32       
S           80.96       39.89       21.24       
H           78.05       39.54       19.19       
H           77.42       40.57       21.63       
C           78.79       39.77       19.98       
C           80.12       39.56       19.76       
C           79.7        42.32       33.08       
N           80.81       42.28       32.37       
C           78.46       42.3        32.48       
C           80.68       41.9        31.14       
C           79.52       41.73       30.36       
C           79.94       41.44       28.93       
C           81.49       41.39       29.07       
N           81.78       41.66       30.38       
C           79.34       41.16       27.74       
C           77.81       41.04       27.57       
N           77.43       40.89       26.24       
C           78.6        40.83       25.47       
C           80.9        40.84       25.61       
C           79.74       40.95       26.37       
C           78.38       42.04       31.08       
O           76.94       41.03       28.44       
O           82.3        41.35       28.21       
C           76.12       41.29       25.77       
C           83.14       41.47       30.93       
H           83.25       41.61       32.01       
H           83.49548    40.46043    30.72382    
H           83.79       42.22       30.44       
H           76.2        42.04       24.97       
H           75.52444    40.42118    25.48973    
H           75.68       41.95       26.51       
H           81.84       40.52       23.72       
H           81.83       40.79       26.14       
H           77.38       42.1        30.62       
H           77.51       42.37       33.08       
C           80.85       40.65       24.22       
N           78.46       40.64       24.18       
C           79.66       40.54       23.55       
C           80.91       43.62       36.56       
C           79.94       42.62       36.75       
S           80.97       44.05       34.91       
H           78.64       41.32       35.52       
H           79.62       42.36       37.8        
C           79.4        42.12       35.51       
C           79.93       42.7        34.4        
C           87.51       47.24       44.42       
N           87.57       47.78       43.24       
C           86.56       46.3        44.74       
C           86.63       47.45       42.34       
C           85.64       46.48       42.53       
C           84.94       46.36       41.26       
C           85.53       47.37       40.38       
N           86.6        47.92       41.1        
C           83.84       45.58       40.83       
C           82.88       44.8        41.76       
N           81.85       44.27       41.05       
C           82.01       44.59       39.71       
C           83.73       45.34       38.19       
C           83.28       45.24       39.48       
C           85.64       45.89       43.84       
O           82.89       44.87       42.97       
O           85.28       47.76       39.27       
C           80.75       43.63       41.63       
C           87.71       48.59       40.36       
H           88.23       49.27       41.08       
H           88.37386    47.90449    39.83324    
H           87.23       49.31       39.7        
H           81.02       42.93       42.43       
H           80.03505    44.37272    41.984      
H           80.32       43.05       40.9        
H           83.22       44.74       36.13       
H           84.71       45.54       37.91       
H           84.97       45.05       44.09       
H           86.44       45.93       45.79       
C           82.89       44.83       37.15       
N           81.26       44.07       38.78       
C           81.66       44.34       37.52       
C           89.68       48.39       47.44       
C           89.95       49.18       46.41       
S           88.55       47.12       46.99       
H           89.33       49.41       44.31       
H           90.72       49.99       46.41       
C           89.2        48.9        45.24       
C           88.44       47.75       45.34       
C           95.58       47.44       56.29       
N           95.4        48.74       55.91       
C           94.91       46.33       55.71       
C           94.31       48.91       55.07       
C           93.54       47.82       54.49       
C           92.62       48.44       53.53       
C           92.96       49.92       53.58       
N           93.93       50.14       54.57       
C           91.84       47.94       52.55       
C           91.2        46.57       52.74       
N           90.41       46.34       51.58       
C           90.54       47.4        50.72       
C           91.71       49.47       50.35       
C           91.43       48.39       51.24       
C           93.84       46.49       54.87       
O           91.06       45.94       53.78       
O           92.49       50.84       52.92       
C           89.49       45.22       51.46       
C           94.32       51.41       55.1        
H           94.05       52.23       54.51       
H           93.92054    51.6061     56.09502    
H           95.4        51.58       55.05       
H           89.64       44.65       50.56       
H           88.43762    45.50305    51.48177    
H           89.66       44.56       52.21       
H           91.31       50.18       48.35       
H           92.42       50.25       50.62       
H           93.38       45.65       54.4        
H           95.27       45.33       56.01       
C           91.17       49.41       49.06       
N           89.94       47.41       49.57       
C           90.24       48.43       48.76       
C           97.93       46.46       59.15       
C           98.47       47.54       58.61       
S           96.49       45.97       58.36       
H           98.0        48.86       56.9        
H           99.35       48.06       59.0        
C           97.79       47.94       57.39       
C           96.59       47.27       57.25       
C           97.68       42.48       69.53       
N           98.3        43.62       69.29       
C           97.0        41.82       68.52       
C           98.38       44.0        68.0        
C           97.8        43.44       66.87       
C           98.14       44.26       65.67       
C           98.89       45.42       66.29       
N           98.96       45.22       67.67       
C           97.83       44.13       64.27       
C           96.74       43.19       63.74       
N           96.45       43.49       62.48       
C           97.34       44.47       62.02       
C           98.73       46.15       62.82       
C           98.07       45.01       63.14       
C           97.11       42.24       67.15       
O           96.09       42.3        64.39       
O           99.4        46.4        65.76       
C           95.12       43.17       62.0        
C           99.13       46.32       68.61       
H           98.62       46.1        69.58       
H           100.18739   46.51738    68.78623    
H           98.6        47.16       68.16       
H           94.86       44.1        61.45       
H           95.10595    42.355      61.27634    
H           94.4        43.09       62.82       
H           99.39       47.56       61.3        
H           99.26       46.66       63.5        
H           96.63       41.59       66.5        
H           96.34       40.9        68.69       
C           98.76       46.64       61.51       
N           97.3        44.91       60.79       
C           98.14       45.94       60.51       
C           97.65       41.3        73.29       
C           97.41       42.66       73.31       
S           97.8        40.72       71.62       
H           97.13       44.27       71.78       
H           97.3        43.28       74.18       
C           97.36       43.23       71.93       
C           97.49       42.28       70.95       
C           101.78      33.8        80.23       
N           101.37      35.04       80.68       
C           101.64      33.38       78.9        
C           100.8       35.83       79.84       
C           100.44      35.54       78.49       
C           99.76       36.74       78.01       
C           99.84       37.71       79.21       
N           100.49      37.08       80.24       
C           99.16       37.08       76.81       
C           99.05       36.13       75.56       
N           98.49       36.86       74.49       
C           98.38       38.17       74.86       
C           98.48       39.77       76.6        
C           98.66       38.37       76.26       
C           100.9       34.28       78.04       
O           99.31       34.88       75.51       
O           99.45       38.84       79.39       
C           98.51       36.37       73.19       
C           100.97      37.86       81.4        
H           101.27      38.85       81.09       
H           100.32566   37.75977    82.27343    
H           101.91      37.32       81.66       
H           98.98       37.08       72.47       
H           97.5485     36.05186    72.78702    
H           99.19       35.54       73.23       
H           97.99       41.76       75.92       
H           98.63       40.15       77.56       
H           100.63      33.92       77.08       
H           101.99      32.41       78.59       
C           98.09       40.69       75.66       
N           98.19       39.07       73.98       
C           98.09       40.39       74.32       
C           103.91      32.47       83.12       
C           104.16      31.72       82.01       
S           102.62      33.59       82.84       
H           103.29      31.47       79.99       
H           105.06      31.07       81.99       
C           103.28      31.93       80.97       
C           102.58      33.08       81.19       
C           110.41      32.54       91.98       
N           109.18      33.2        92.05       
C           110.82      31.8        90.92       
C           108.36      33.07       91.03       
C           108.68      32.37       89.82       
C           107.5       32.54       88.89       
C           106.55      33.38       89.66       
N           107.08      33.6        90.94       
C           107.18      32.02       87.65       
C           108.05      31.05       86.9        
N           107.42      30.78       85.66       
C           106.34      31.63       85.52       
C           105.05      33.3        86.58       
C           106.07      32.32       86.7        
C           109.98      31.79       89.8        
O           109.06      30.48       87.25       
O           105.4       33.7        89.42       
C           107.99      29.88       84.7        
C           106.49      34.26       92.06       
H           106.94      33.96       92.99       
H           106.52466   35.34146    91.92828    
H           105.46      33.89       92.04       
H           108.05      30.3        83.65       
H           107.5172    28.89912    84.6506     
H           109.0       29.93       84.97       
H           103.66      34.21       85.34       
H           104.9       34.11       87.32       
H           110.39      31.43       88.9        
H           111.82      31.29       90.91       
C           104.32      33.32       85.42       
N           105.64      31.64       84.43       
C           104.6       32.49       84.35       
C           113.37      32.9        94.51       
C           112.22      33.06       95.23       
S           113.13      32.72       92.8        
H           110.07      33.02       94.77       
H           112.13      33.14       96.3        
C           111.08      32.93       94.39       
C           111.38      32.67       93.11       
C           123.76      29.47       96.59       
N           122.75      29.21       97.45       
C           123.42      30.16       95.44       
C           121.49      29.63       97.16       
C           121.06      30.35       95.99       
C           119.65      30.68       96.04       
C           119.28      30.12       97.46       
N           120.4       29.48       97.97       
C           118.75      31.38       95.25       
C           119.1       31.89       93.84       
N           117.93      32.4        93.24       
C           116.93      32.4        94.22       
C           116.39      31.93       96.43       
C           117.39      31.86       95.41       
C           122.11      30.65       95.18       
O           120.15      31.97       93.22       
O           118.24      30.07       98.09       
C           117.77      32.97       91.92       
C           120.28      28.37       98.98       
H           121.17      28.24       99.55       
H           120.2453    27.39144    98.50113    
H           119.45      28.6        99.6        
H           118.6       33.71       91.63       
H           117.73451   32.18212    91.16761    
H           116.92      33.65       91.89       
H           114.35      32.26       97.04       
H           116.7       31.78       97.44       
H           122.04      31.36       94.35       
H           124.19      30.45       94.77       
C           115.09      32.32       96.19       
N           115.63      32.72       93.93       
C           114.72      32.57       94.93       
C           126.93      27.76       97.87       
C           127.38      28.61       96.88       
S           125.22      27.83       98.18       
H           126.35      30.02       95.49       
H           128.43      28.79       96.68       
C           126.25      29.36       96.36       
C           125.08      29.02       96.93       
C           134.57      21.8        103.46      
N           133.34      21.94       103.96      
C           134.94      22.28       102.24      
C           132.53      22.61       103.23      
C           132.71      23.2        101.92      
C           131.34      23.77       101.51      
C           130.62      23.67       102.85      
N           131.26      22.88       103.73      
C           130.85      24.47       100.4       
C           131.77      24.75       99.24       
N           131.16      25.7        98.43       
C           129.85      25.95       98.85       
C           128.22      25.36       100.54      
C           129.58      25.22       100.05      
C           134.02      23.06       101.54      
O           132.98      24.47       99.12       
O           129.54      24.15       103.11      
C           131.68      26.25       97.17       
C           130.72      22.51       105.04      
H           130.04      23.33       105.37      
H           130.22975   21.53671    105.01837   
H           131.57      22.65       105.64      
H           131.2       27.18       96.88       
H           131.59425   25.49971    96.38399    
H           132.72      26.48       97.45       
H           126.31      26.36       100.19      
H           127.86      24.75       101.34      
H           134.31      23.65       100.62      
H           135.96      22.23       102.01      
C           127.36      26.2        99.84       
N           129.04      26.76       98.2        
C           127.79      26.84       98.67       
C           136.04      19.7        106.36      
C           137.13      20.29       105.71      
S           134.68      20.68       105.95      
H           137.46      21.32       103.81      
H           138.16      19.99       105.92      
C           136.78      20.96       104.51      
C           135.45      21.18       104.46      
H           85.83       31.25       -3.75       
H           135.93      18.65       106.57      
