392

C           85.51       22.23       36.12       
N           85.19       20.93       36.39       
C           85.69       22.63       34.82       
C           85.46       20.04       35.43       
C           85.81       20.34       34.13       
C           85.99       19.05       33.39       
C           85.49       18.05       34.46       
N           85.25       18.69       35.64       
C           86.37       18.71       32.03       
C           86.95       19.71       31.03       
N           87.1        19.04       29.81       
C           86.77       17.69       29.92       
C           86.1        16.13       31.46       
C           86.39       17.43       31.26       
C           85.76       21.69       33.75       
O           87.05       20.88       31.12       
O           85.45       16.79       34.44       
C           87.78       19.66       28.69       
C           84.37       18.14       36.62       
H           83.52       17.68       36.13       
H           84.78819    17.5384     37.42703    
H           83.93       18.96       37.19       
H           87.21       19.43       27.77       
H           88.85731    19.50199    28.74027    
H           87.56       20.75       28.75       
H           86.0        14.11       30.7        
H           86.12       15.71       32.43       
H           85.89       22.01       32.78       
H           85.83       23.7        34.58       
C           86.07       15.15       30.42       
N           86.82       16.81       28.92       
C           86.4        15.53       29.11       
C           84.09       23.86       39.43       
C           84.79       24.86       38.83       
S           84.28       22.41       38.54       
H           85.98       25.15       36.93       
H           84.81       25.85       39.32       
C           85.42       24.49       37.55       
C           85.14       23.15       37.21       
C           80.01       22.1        49.77       
N           80.57       23.26       49.44       
C           79.81       21.12       48.81       
C           81.08       23.43       48.22       
C           80.99       22.48       47.11       
C           81.67       23.07       45.9        
C           82.01       24.43       46.46       
N           81.73       24.58       47.86       
C           81.85       22.69       44.58       
C           81.3        21.34       44.03       
N           81.68       21.27       42.66       
C           82.47       22.41       42.29       
C           83.23       24.45       43.02       
C           82.51       23.33       43.39       
C           80.37       21.22       47.52       
O           80.91       20.37       44.65       
O           82.43       25.36       45.81       
C           81.72       20.02       41.84       
C           81.69       25.84       48.58       
H           80.75       25.93       49.08       
H           82.50678    25.90283    49.29904    
H           81.82       26.57       47.83       
H           82.62       20.07       41.17       
H           80.8708     19.84477    41.17951    
H           81.88       19.28       42.58       
H           84.25       25.56       41.55       
H           83.59       25.11       43.74       
H           80.17       20.43       46.82       
H           79.32       20.2        49.05       
C           83.71       24.65       41.72       
N           82.85       22.59       41.03       
C           83.5        23.71       40.74       
C           79.28       22.57       53.58       
C           78.37       21.65       53.08       
S           80.34       23.1        52.33       
H           77.88       20.68       51.19       
H           77.65       21.08       53.71       
C           78.49       21.42       51.67       
C           79.51       22.16       51.15       
C           79.79       25.17       64.35       
N           80.38       25.88       63.42       
C           79.19       23.94       64.07       
C           80.33       25.4        62.21       
C           79.69       24.25       61.72       
C           79.8        24.29       60.21       
C           80.81       25.43       60.0        
N           80.93       26.1        61.21       
C           79.24       23.52       59.15       
C           78.47       22.23       59.3        
N           78.04       21.82       57.99       
C           78.7        22.54       57.04       
C           80.01       24.48       56.73       
C           79.43       23.64       57.63       
C           79.1        23.48       62.75       
O           77.99       21.77       60.31       
O           81.36       25.96       59.02       
C           77.32       20.56       57.75       
C           81.34       27.46       61.24       
H           81.07       27.79       62.25       
H           82.41612    27.5826     61.1174     
H           80.72       27.92       60.52       
H           76.69       20.73       56.89       
H           77.93246    19.67299    57.58809    
H           76.65       20.49       58.57       
H           80.52       24.76       54.62       
H           80.52       25.34       57.04       
H           78.65       22.51       62.53       
H           78.74       23.34       64.87       
C           80.05       24.12       55.36       
N           78.72       22.19       55.76       
C           79.48       22.95       54.96       
C           80.89       27.14       67.47       
C           79.87       26.35       67.92       
S           81.13       26.98       65.79       
H           78.62       24.72       67.08       
H           79.53       26.25       68.96       
C           79.37       25.51       66.91       
C           79.93       25.72       65.69       
C           86.52       33.84       74.38       
N           86.71       33.88       73.07       
C           85.6        33.0        74.94       
C           85.91       33.17       72.34       
C           84.86       32.29       72.72       
C           84.33       31.67       71.49       
C           85.17       32.35       70.35       
N           86.14       33.15       71.01       
C           83.4        30.69       71.13       
C           82.55       30.02       72.18       
N           81.75       29.06       71.6        
C           82.03       28.93       70.25       
C           83.21       29.92       68.49       
C           82.93       30.0        69.86       
C           84.72       32.27       74.12       
O           82.45       30.22       73.34       
O           85.2        32.03       69.15       
C           80.86       28.19       72.36       
C           86.92       34.15       70.28       
H           86.96       35.1        70.85       
H           87.85284    33.67662    69.97369    
H           86.36       34.41       69.38       
H           81.27       28.06       73.36       
H           79.83859    28.56476    72.42613    
H           80.78       27.19       71.93       
H           82.74       28.91       66.6        
H           83.85       30.65       68.06       
H           84.03       31.56       74.58       
H           85.41       32.93       76.06       
C           82.62       28.93       67.68       
N           81.45       28.02       69.53       
C           81.78       27.99       68.22       
C           88.85       35.45       76.89       
C           89.24       35.95       75.66       
S           87.59       34.29       76.8        
H           88.58       35.59       73.57       
H           89.97       36.76       75.52       
C           88.49       35.34       74.63       
C           87.51       34.54       75.12       
C           91.83       38.32       87.23       
N           92.2        39.06       86.17       
C           91.11       37.16       87.08       
C           91.85       38.58       84.99       
C           91.13       37.37       84.69       
C           90.99       37.35       83.14       
C           91.97       38.42       82.74       
N           92.39       39.13       83.81       
C           90.29       36.54       82.25       
C           89.72       35.15       82.57       
N           89.05       34.59       81.48       
C           89.32       35.41       80.38       
C           90.07       37.55       79.78       
C           89.93       36.61       80.77       
C           90.78       36.61       85.8        
O           89.79       34.53       83.56       
O           92.34       38.65       81.58       
C           88.62       33.21       81.46       
C           92.89       40.51       83.68       
H           93.66       40.5        82.91       
H           92.08975    41.2388     83.55139    
H           93.5        40.7        84.52       
H           89.1        32.62       80.66       
H           87.53628    33.12388    81.38105    
H           89.02       32.62       82.31       
H           89.89       37.92       77.7        
H           90.51       38.53       80.01       
H           90.31       35.66       85.65       
H           90.96       36.55       88.01       
C           89.77       37.15       78.47       
N           88.92       35.1        79.17       
C           89.27       35.91       78.17       
C           92.85       39.22       90.8        
C           92.54       40.4        90.21       
S           92.6        37.85       89.8        
H           91.88       40.97       88.13       
H           92.54       41.44       90.7        
C           92.21       40.18       88.87       
C           92.18       38.9        88.49       
C           96.55       36.83       100.89      
N           96.29       38.06       100.45      
C           96.27       35.76       100.07      
C           95.9        38.32       99.22       
C           95.48       37.31       98.33       
C           94.96       38.02       97.15       
C           94.91       39.51       97.58       
N           95.49       39.61       98.82       
C           94.4        37.59       95.95       
C           94.03       36.13       95.57       
N           93.58       36.08       94.26       
C           93.62       37.35       93.76       
C           94.26       39.69       94.21       
C           94.1        38.34       94.67       
C           95.68       35.99       98.83       
O           94.05       35.12       96.3        
O           94.27       40.45       97.08       
C           92.96       34.92       93.63       
C           95.25       40.79       99.71       
H           95.5        40.6        100.75      
H           95.79238    41.67227    99.37011    
H           94.24       40.98       99.51       
H           92.36       35.26       92.84       
H           93.67077    34.20206    93.22077    
H           92.4        34.48       94.43       
H           93.91       40.88       92.47       
H           94.67       40.46       94.81       
H           95.36       35.09       98.32       
H           96.34       34.77       100.48      
C           93.82       39.95       92.92       
N           93.18       37.64       92.52       
C           93.3        38.92       92.11       
C           98.25       36.34       104.42      
C           98.18       37.65       104.12      
S           97.63       35.41       103.09      
H           97.56       38.97       102.44      
H           98.58       38.36       104.8       
C           97.59       37.97       102.83      
C           97.18       36.85       102.19      
C           102.9       30.65       112.67      
N           102.98      31.98       112.71      
C           102.19      29.95       111.69      
C           102.29      32.54       111.73      
C           101.58      31.97       110.66      
C           101.11      33.06       109.79      
C           101.72      34.37       110.49      
N           102.41      33.92       111.56      
C           100.33      33.14       108.67      
C           99.68       31.98       107.92      
N           99.14       32.41       106.77      
C           99.21       33.74       106.7       
C           99.89       35.68       107.74      
C           99.86       34.28       107.8       
C           101.43      30.58       110.73      
O           99.81       30.78       108.13      
O           101.65      35.58       110.18      
C           98.52       31.49       105.83      
C           103.44      34.72       112.21      
H           103.77      35.6        111.6       
H           103.25781   34.98236    113.25215   
H           104.34      34.08       112.26      
H           98.71       31.9        104.86      
H           97.4824     31.21932    106.02549   
H           99.07       30.53       105.7       
H           99.21       37.47       106.77      
H           100.3       36.18       108.56      
H           100.98      29.92       109.96      
H           102.22      28.83       111.66      
C           99.31       36.41       106.72      
N           98.73       34.36       105.65      
C           98.82       35.71       105.62      
C           104.8       29.39       115.86      
C           104.6       28.3        115.01      
S           104.28      30.87       115.05      
H           103.77      27.91       113.03      
H           104.79      27.29       115.31      
C           103.96      28.63       113.81      
C           103.64      29.94       113.73      
C           110.63      27.27       125.38      
N           109.66      28.28       125.42      
C           110.96      26.69       124.18      
C           109.09      28.68       124.28      
C           109.27      28.02       122.95      
C           108.24      28.68       122.02      
C           107.62      29.77       122.88      
N           108.25      29.74       124.13      
C           107.87      28.46       120.68      
C           108.46      27.26       119.87      
N           107.87      27.25       118.66      
C           106.97      28.27       118.51      
C           106.07      30.14       119.43      
C           106.99      29.1        119.64      
C           110.29      27.01       122.97      
O           109.22      26.45       120.24      
O           106.74      30.6        122.61      
C           108.18      26.2        117.69      
C           107.85      30.53       125.28      
H           107.94      29.94       126.22      
H           108.37406   31.47331    125.43372   
H           106.78      30.76       125.1       
H           108.24      26.74       116.77      
H           107.46511   25.38602    117.81033   
H           109.15      25.77       117.91      
H           104.74      31.15       118.13      
H           105.77      30.72       120.25      
H           110.54      26.45       122.13      
H           111.76      25.94       124.1       
C           105.42      30.35       118.16      
N           106.3       28.34       117.36      
C           105.53      29.37       117.16      
C           112.49      25.99       128.42      
C           111.39      26.58       128.98      
S           112.79      26.17       126.7       
H           109.82      27.74       128.08      
H           111.07      26.56       130.01      
C           110.67      27.14       127.94      
C           111.2       26.92       126.63      
C           118.36      17.54       131.89      
N           117.96      18.37       132.85      
C           117.97      17.69       130.53      
C           117.24      19.41       132.41      
C           116.99      19.84       131.04      
C           116.3       21.15       131.11      
C           115.97      21.4        132.59      
N           116.68      20.39       133.24      
C           115.92      22.0        130.05      
C           116.57      22.03       128.63      
N           116.09      23.13       128.01      
C           115.08      23.73       128.76      
C           114.0       23.76       130.83      
C           114.92      23.1        130.03      
C           117.36      18.9        130.06      
O           117.36      21.26       128.15      
O           115.63      22.41       133.16      
C           116.84      23.79       126.97      
C           116.67      20.32       134.68      
H           117.65      20.32       135.1       
H           116.05836   19.479      135.00667   
H           116.23      21.28       135.08      
H           117.9       23.64       127.12      
H           116.56449   23.36296    126.00572   
H           116.55      24.84       127.05      
H           112.5       25.22       131.1       
H           113.85      23.4        131.86      
H           117.1       18.99       128.96      
H           118.22      16.87       129.77      
C           113.29      24.88       130.45      
N           114.41      24.74       128.32      
C           113.42      25.19       129.11      
C           120.8       15.01       133.46      
C           120.44      14.45       132.28      
S           120.06      16.58       133.79      
H           118.91      15.0        130.76      
H           120.82      13.45       131.97      
C           119.45      15.22       131.63      
C           119.16      16.43       132.33      
C           126.87      8.82        140.43      
N           126.06      9.78        140.88      
C           127.0       8.66        139.04      
C           125.39      10.58       140.03      
C           125.41      10.5        138.59      
C           124.67      11.58       137.97      
C           124.18      12.29       139.21      
N           124.67      11.7        140.36      
C           124.3       11.9        136.68      
C           124.59      11.03       135.41      
N           124.0       11.64       134.3       
C           123.33      12.79       134.71      
C           122.76      14.13       136.54      
C           123.52      12.97       136.09      
C           126.33      9.56        138.16      
O           125.23      9.95        135.36      
O           123.53      13.3        139.33      
C           124.07      11.11       132.95      
C           124.79      12.23       141.66      
H           124.89      13.33       141.61      
H           124.05636   11.89587    142.39364   
H           125.78      11.89       142.08      
H           124.14      11.93       132.21      
H           123.19354   10.5304     132.6602    
H           125.04      10.63       132.87      
H           121.24      15.57       136.09      
H           122.69      14.48       137.53      
H           126.62      9.48        137.14      
H           127.79      7.98        138.67      
C           121.9       14.84       135.68      
N           122.62      13.49       133.86      
C           121.88      14.49       134.33      
C           128.18      6.47        143.25      
C           129.09      6.45        142.22      
S           126.83      7.4         142.79      
H           129.35      7.42        140.35      
H           129.99      5.83        142.21      
C           128.71      7.31        141.18      
C           127.55      7.93        141.38      
H           86.73       14.78       28.47       
H           128.05      5.58        143.87      
