392

C           85.06       25.54       6.46        
N           84.46       24.39       6.79        
C           85.6        25.76       5.21        
C           84.28       23.53       5.78        
C           84.6        23.71       4.37        
C           84.07       22.56       3.68        
C           83.69       21.58       4.78        
N           83.71       22.28       5.98        
C           84.04       22.15       2.31        
C           84.7        22.94       1.23        
N           84.55       22.19       0.07        
C           83.71       21.13       0.31        
C           82.62       19.81       1.86        
C           83.41       20.96       1.65        
C           85.31       24.92       4.11        
O           85.44       23.95       1.21        
O           83.31       20.41       4.68        
C           85.35       22.42       -1.13       
C           83.12       21.83       7.23        
H           82.18       21.26       7.01        
H           83.82993    21.20881    7.7761      
H           82.87       22.66       7.9         
H           84.78       22.01       -1.92       
H           86.31973    21.9242     -1.17375    
H           85.37       23.5        -1.24       
H           81.7        18.07       0.83        
H           82.29       19.52       2.77        
H           85.77       25.1        3.22        
H           86.18       26.65       5.0         
C           82.25       19.02       0.79        
N           83.34       20.44       -0.73       
C           82.65       19.34       -0.51       
C           85.44       27.6        9.78        
C           86.49       27.88       8.96        
S           84.46       26.32       9.04        
H           87.26       27.33       6.94        
H           87.26       28.52       9.28        
C           86.49       27.18       7.71        
C           85.36       26.37       7.57        
C           82.39       30.59       20.13       
N           83.65       30.97       19.63       
C           81.44       30.15       19.19       
C           83.99       30.53       18.44       
C           83.13       29.98       17.42       
C           83.94       29.7        16.23       
C           85.35       30.11       16.66       
N           85.27       30.59       17.97       
C           83.66       29.13       14.98       
C           82.26       28.44       14.65       
N           82.34       27.88       13.38       
C           83.57       28.17       12.85       
C           85.66       29.05       13.3        
C           84.39       28.87       13.77       
C           81.84       29.88       17.85       
O           81.18       28.24       15.31       
O           86.37       30.1        16.02       
C           81.16       27.33       12.65       
C           86.44       31.09       18.64       
H           86.19       31.93       19.28       
H           86.87806    30.38077    19.34228    
H           87.26       31.28       17.97       
H           81.55       26.56       11.93       
H           80.51016    28.10838    12.2501     
H           80.67       26.69       13.4        
H           86.98       28.78       11.59       
H           86.43       29.51       13.89       
H           81.11       29.66       17.09       
H           80.47       29.92       19.49       
C           86.01       28.58       11.99       
N           83.9        27.68       11.62       
C           85.11       27.95       11.16       
C           81.77       31.89       23.71       
C           81.06       30.72       23.64       
S           82.56       32.35       22.21       
H           80.61       29.26       22.02       
H           80.44       30.33       24.47       
C           81.17       30.15       22.28       
C           82.06       30.85       21.51       
C           82.33       37.94       32.91       
N           83.35       37.99       32.06       
C           81.19       37.28       32.72       
C           83.22       37.16       31.01       
C           82.11       36.34       30.7        
C           82.48       35.62       29.43       
C           83.88       36.18       29.15       
N           84.23       37.07       30.11       
C           81.8        34.72       28.63       
C           80.57       34.0        29.01       
N           80.19       33.07       28.0        
C           81.13       33.22       26.98       
C           83.09       34.29       26.28       
C           82.14       34.15       27.26       
C           81.02       36.41       31.61       
O           79.97       34.06       30.12       
O           84.64       35.92       28.25       
C           79.07       32.17       28.09       
C           85.11       38.26       29.9        
H           84.57       39.22       30.15       
H           86.03152    38.11713    30.46434    
H           85.27       38.31       28.81       
H           78.52       32.23       27.16       
H           79.42913    31.14095    28.10381    
H           78.52       32.29       29.0        
H           83.66       33.79       24.23       
H           83.91       34.96       26.3        
H           80.12       35.78       31.55       
H           80.4        37.36       33.45       
C           82.89       33.67       24.98       
N           81.11       32.48       25.91       
C           81.97       32.67       24.9        
C           83.82       39.69       36.18       
C           82.5        39.36       36.44       
S           84.25       39.06       34.55       
H           80.95       38.25       35.36       
H           82.01       39.37       37.39       
C           81.87       38.79       35.27       
C           82.64       38.67       34.13       
C           90.25       43.69       44.39       
N           90.62       43.89       43.1        
C           89.13       42.9        44.68       
C           89.82       43.4        42.14       
C           88.64       42.61       42.28       
C           88.09       42.22       40.95       
C           89.15       42.94       40.0        
N           90.16       43.48       40.79       
C           86.92       41.62       40.47       
C           85.72       41.39       41.39       
N           84.74       40.85       40.55       
C           85.15       40.66       39.28       
C           86.92       41.23       37.8        
C           86.43       41.28       39.13       
C           88.35       42.4        43.62       
O           85.43       41.76       42.53       
O           89.28       42.99       38.8        
C           83.42       40.46       40.99       
C           91.14       44.41       40.27       
H           91.52       45.05       41.05       
H           91.99368    43.88356    39.84316    
H           90.58       44.95       39.51       
H           83.49       40.0        41.98       
H           82.7316     41.29744    41.10355    
H           82.89       39.78       40.33       
H           86.35       40.66       35.71       
H           87.91       41.54       37.58       
H           87.48       41.82       43.86       
H           88.87       42.64       45.66       
C           86.04       40.71       36.75       
N           84.34       40.22       38.37       
C           84.76       40.25       37.11       
C           92.36       44.66       47.43       
C           92.78       45.37       46.35       
S           90.97       43.76       47.03       
H           92.37       45.5        44.24       
H           93.67       46.05       46.38       
C           92.12       45.1        45.17       
C           91.14       44.21       45.38       
C           95.32       45.29       58.17       
N           95.43       46.4        57.45       
C           94.67       44.11       57.75       
C           94.87       46.35       56.24       
C           94.29       45.18       55.65       
C           94.12       45.54       54.18       
C           94.72       46.94       54.1        
N           95.12       47.34       55.35       
C           93.58       44.89       53.08       
C           92.74       43.56       53.18       
N           92.29       43.19       51.95       
C           92.73       44.09       51.0        
C           93.97       45.98       50.66       
C           93.51       45.13       51.61       
C           94.2        44.07       56.47       
O           92.39       42.95       54.21       
O           94.71       47.74       53.15       
C           91.66       41.89       51.73       
C           96.01       48.39       55.54       
H           96.54       48.36       54.54       
H           95.6178     49.33128    55.92507    
H           96.8        48.04       56.23       
H           92.13       41.28       50.92       
H           90.57091    41.90405    51.68784    
H           91.89       41.2        52.51       
H           93.93       46.54       48.62       
H           94.53       46.84       50.97       
H           93.86       43.1        56.07       
H           94.58       43.3        58.44       
C           93.55       45.83       49.33       
N           92.41       43.86       49.7        
C           92.86       44.75       48.82       
C           96.97       44.82       61.72       
C           96.67       46.15       61.62       
S           96.29       43.98       60.35       
H           95.87       47.51       59.99       
H           96.98       46.81       62.36       
C           96.09       46.53       60.28       
C           95.81       45.41       59.53       
C           101.66      38.75       69.72       
N           101.4       40.06       69.85       
C           101.48      38.07       68.53       
C           100.93      40.66       68.85       
C           100.65      40.16       67.59       
C           100.08      41.34       66.79       
C           100.32      42.49       67.72       
N           100.7       41.98       68.96       
C           99.54       41.45       65.55       
C           99.47       40.23       64.58       
N           98.88       40.73       63.44       
C           98.55       42.08       63.55       
C           98.59       43.98       64.98       
C           98.92       42.63       64.81       
C           100.93      38.81       67.4        
O           99.73       39.07       64.67       
O           100.21      43.68       67.55       
C           98.66       39.95       62.25       
C           100.7       42.77       70.2        
H           100.22      42.15       70.94       
H           101.67166   43.23101    70.37731    
H           100.03      43.6        70.03       
H           99.34       39.13       62.28       
H           97.64567    39.5975     62.06296    
H           98.98       40.56       61.39       
H           97.7        45.79       64.19       
H           98.88       44.37       65.88       
H           100.66      38.22       66.54       
H           101.56      36.93       68.45       
C           97.97       44.73       64.0        
N           98.04       42.82       62.54       
C           97.71       44.1        62.77       
C           103.3       36.49       72.38       
C           103.25      37.74       72.91       
S           102.69      36.54       70.78       
H           102.43      39.69       72.36       
H           103.56      38.05       73.94       
C           102.66      38.7        72.05       
C           102.22      38.17       70.87       
C           107.86      27.37       76.18       
N           107.24      28.09       77.11       
C           107.63      27.54       74.81       
C           106.39      29.0        76.62       
C           106.11      29.31       75.25       
C           105.23      30.54       75.23       
C           104.93      30.89       76.72       
N           105.6       29.85       77.45       
C           104.73      31.28       74.18       
C           104.44      30.7        72.82       
N           104.0       31.75       72.01       
C           103.91      32.88       72.76       
C           104.36      33.82       74.86       
C           104.3       32.69       74.11       
C           106.68      28.47       74.34       
O           104.47      29.57       72.41       
O           104.19      31.68       77.31       
C           103.56      31.66       70.64       
C           105.57      29.69       78.86       
H           105.3       30.62       79.33       
H           104.97186   28.82926    79.15907    
H           106.57      29.55       79.17       
H           103.91      32.52       70.16       
H           102.47867   31.68827    70.50572    
H           103.94      30.76       70.12       
H           104.1       35.97       74.97       
H           104.51      33.76       75.9        
H           106.59      28.73       73.3        
H           108.11      26.9        74.02       
C           104.06      35.1        74.34       
N           103.64      34.1        72.23       
C           103.75      35.21       73.02       
C           109.52      24.38       77.88       
C           110.23      24.54       76.73       
S           108.3       25.58       78.12       
H           110.0       25.93       74.95       
H           110.89      23.74       76.26       
C           109.74      25.65       75.97       
C           108.75      26.33       76.61       
C           110.86      15.61       84.61       
N           111.18      16.89       85.11       
C           110.62      15.46       83.27       
C           110.97      17.88       84.3        
C           110.59      17.88       82.94       
C           110.55      19.31       82.48       
C           111.0       20.18       83.69       
N           111.29      19.26       84.66       
C           110.5       19.82       81.23       
C           110.55      18.99       79.9        
N           110.57      19.86       78.81       
C           110.31      21.17       79.26       
C           110.04      22.51       81.13       
C           110.31      21.21       80.69       
C           110.38      16.59       82.42       
O           110.87      17.79       79.8        
O           111.22      21.42       83.79       
C           110.88      19.45       77.5        
C           111.82      19.65       85.95       
H           111.76      18.81       86.65       
H           112.90061   19.78161    85.89458    
H           111.24      20.56       86.28       
H           111.53      20.18       76.97       
H           110.00126   19.31535    76.86929    
H           111.37      18.48       77.55       
H           109.42      24.51       80.54       
H           110.03      22.72       82.22       
H           109.94      16.41       81.42       
H           110.37      14.52       82.9        
C           109.69      23.49       80.24       
N           110.11      22.16       78.36       
C           109.7       23.3        78.87       
C           111.35      13.32       87.77       
C           110.35      12.81       87.02       
S           112.12      14.63       86.87       
H           109.33      13.21       85.18       
H           109.81      11.9        87.31       
C           110.15      13.42       85.78       
C           110.86      14.58       85.66       
C           113.74      8.78        97.62       
N           114.13      9.97        97.33       
C           113.06      7.99        96.66       
C           113.93      10.45       96.11       
C           113.13      9.82        95.1        
C           113.07      10.8        93.93       
C           114.04      11.93       94.36       
N           114.39      11.68       95.68       
C           112.26      10.91       92.78       
C           111.06      10.0        92.5        
N           110.49      10.42       91.31       
C           111.22      11.4        90.73       
C           113.14      12.77       91.04       
C           112.33      11.74       91.54       
C           112.69      8.58        95.44       
O           110.67      9.06        93.12       
O           114.42      12.95       93.87       
C           109.33      9.79        90.66       
C           115.4       12.45       96.34       
H           116.08      11.74       96.77       
H           115.03205   13.06561    97.16081    
H           116.02      13.04       95.64       
H           109.29      8.66        90.88       
H           108.388     10.23959    90.974      
H           109.55      9.88        89.65       
H           113.59      14.01       89.34       
H           113.92      13.12       91.66       
H           112.03      8.09        94.74       
H           112.67      7.09        97.06       
C           112.88      13.33       89.78       
N           110.82      12.02       89.67       
C           111.71      12.89       89.13       
C           114.83      8.3         101.38      
C           114.48      7.09        100.87      
S           114.63      9.53        100.14      
H           113.58      6.22        99.04       
H           114.47      6.16        101.45      
C           113.98      7.11        99.55       
C           114.1       8.36        98.97       
C           117.2       9.4         112.35      
N           117.24      10.4        111.51      
C           116.83      8.12        111.95      
C           117.06      10.14       110.29      
C           116.69      8.95        109.64      
C           116.54      9.32        108.21      
C           116.9       10.76       108.08      
N           117.21      11.2        109.32      
C           116.12      8.65        107.01      
C           115.78      7.17        107.02      
N           115.35      6.78        105.72      
C           115.39      7.85        104.84      
C           116.02      10.04       104.61      
C           115.87      9.01        105.59      
C           116.6       7.88        110.59      
O           115.78      6.33        107.91      
O           116.79      11.58       107.14      
C           114.94      5.49        105.29      
C           117.6       12.57       109.56      
H           118.29      12.85       108.75      
H           116.78421   13.29276    109.54569   
H           118.13      12.49       110.57      
H           115.41      5.02        104.35      
H           113.85451   5.40139     105.24569   
H           115.24      4.86        106.07      
H           115.84      10.6        102.57      
H           116.31      11.07       104.91      
H           116.28      6.9         110.3       
H           116.74      7.34        112.68      
C           115.66      9.77        103.27      
N           115.22      7.58        103.57      
C           115.24      8.59        102.73      
C           118.14      9.31        116.26      
C           117.97      10.62       115.86      
S           117.86      8.28        114.86      
H           117.39      11.65       114.01      
H           118.19      11.49       116.45      
C           117.71      10.71       114.47      
C           117.5       9.58        113.76      
H           82.13       18.88       -1.42       
H           118.83      9.16        117.12      
