392

C           80.49       20.71       31.34       
N           80.21       21.89       30.89       
C           81.05       19.69       30.57       
C           80.38       22.09       29.56       
C           80.88       21.18       28.66       
C           80.94       21.76       27.3        
C           80.53       23.18       27.58       
N           80.26       23.31       28.92       
C           81.31       21.36       26.09       
C           81.47       19.89       25.63       
N           81.81       19.89       24.3        
C           82.05       21.2        23.84       
C           82.22       23.4        24.58       
C           81.81       22.12       24.87       
C           81.28       19.94       29.26       
O           81.29       18.89       26.28       
O           80.15       24.04       26.86       
C           81.75       18.77       23.42       
C           79.96       24.58       29.58       
H           79.51       24.37       30.56       
H           80.89903    25.08835    29.79887    
H           79.32       25.14       28.97       
H           82.43       18.86       22.53       
H           80.75031    18.58434    23.02726    
H           82.02       17.9        24.02       
H           83.17       24.71       23.09       
H           82.21       24.09       25.45       
H           81.82       19.31       28.64       
H           81.35       18.76       31.07       
C           82.77       23.72       23.3        
N           82.61       21.46       22.64       
C           82.95       22.74       22.4        
C           80.32       21.73       35.06       
C           80.2        20.36       35.05       
S           80.52       22.37       33.42       
H           80.09       18.75       33.52       
H           79.96       19.73       35.88       
C           80.17       19.8        33.79       
C           80.38       20.73       32.8        
C           79.19       30.23       42.17       
N           79.12       29.0        42.66       
C           79.45       30.53       40.84       
C           79.23       28.09       41.71       
C           79.53       28.17       40.32       
C           79.44       26.81       39.67       
C           79.21       25.92       40.9        
N           79.18       26.75       42.03       
C           79.54       26.26       38.41       
C           79.68       27.24       37.21       
N           79.93       26.44       36.11       
C           79.91       25.06       36.47       
C           79.57       23.51       38.26       
C           79.62       24.91       37.84       
C           79.76       29.54       39.92       
O           79.57       28.46       37.13       
O           79.15       24.68       40.95       
C           80.21       26.95       34.79       
C           78.91       26.31       43.37       
H           79.24       27.08       44.15       
H           77.88158    26.01514    43.57856    
H           79.52       25.42       43.48       
H           80.07       26.16       33.99       
H           81.17923    27.44538    34.73256    
H           79.51       27.78       34.66       
H           79.44       21.51       37.54       
H           79.4        23.23       39.25       
H           80.07       29.82       38.96       
H           79.55       31.64       40.58       
C           79.66       22.52       37.3        
N           80.18       24.1        35.56       
C           80.02       22.84       35.99       
C           79.91       32.49       45.21       
C           79.54       33.35       44.2        
S           79.79       30.82       44.82       
H           79.27       33.19       42.02       
H           79.62       34.45       44.25       
C           79.38       32.61       42.98       
C           79.41       31.27       43.14       
C           81.9        34.03       55.99       
N           82.42       34.87       55.07       
C           81.13       32.93       55.59       
C           82.05       34.68       53.88       
C           81.26       33.65       53.27       
C           81.16       33.86       51.77       
C           81.93       35.18       51.7        
N           82.5        35.53       52.87       
C           80.65       33.1        50.75       
C           80.09       31.7        50.9        
N           79.91       31.14       49.69       
C           80.23       32.11       48.71       
C           80.86       34.39       48.41       
C           80.66       33.34       49.32       
C           80.84       32.7        54.26       
O           79.84       31.1        51.96       
O           82.17       35.67       50.69       
C           79.07       29.97       49.54       
C           83.52       36.58       52.92       
H           84.16       36.58       52.1        
H           83.06099    37.53912    53.15978    
H           84.19       36.32       53.72       
H           79.31       29.2        50.23       
H           78.01582    30.24627    49.56181    
H           79.31       29.49       48.55       
H           80.71       34.87       46.37       
H           80.92       35.4        48.8        
H           80.37       31.74       54.04       
H           80.87       32.21       56.37       
C           80.72       34.08       47.04       
N           80.18       31.75       47.42       
C           80.28       32.81       46.59       
C           83.25       35.05       59.45       
C           82.48       34.0        59.62       
S           83.22       35.54       57.8        
H           81.12       32.72       58.48       
H           82.4        33.4        60.53       
C           81.79       33.58       58.5        
C           82.25       34.22       57.37       
C           88.38       38.57       68.71       
N           88.1        39.46       67.7        
C           87.94       37.27       68.58       
C           87.55       39.0        66.63       
C           87.06       37.76       66.37       
C           86.51       37.71       64.99       
C           86.73       39.12       64.52       
N           87.3        39.86       65.52       
C           85.92       36.75       64.18       
C           85.89       35.26       64.61       
N           85.48       34.61       63.54       
C           85.09       35.42       62.43       
C           84.88       37.6        61.8        
C           85.24       36.76       62.82       
C           87.17       36.89       67.45       
O           86.42       34.83       65.56       
O           86.56       39.66       63.44       
C           85.74       33.18       63.35       
C           87.29       41.31       65.48       
H           87.53       41.65       64.49       
H           86.32989    41.75805    65.73603    
H           88.03       41.67       66.1        
H           86.73       32.85       63.72       
H           84.93097    32.53981    63.70175    
H           85.77       33.03       62.26       
H           83.81       37.8        59.99       
H           84.95       38.65       62.0        
H           86.71       35.9        67.39       
H           88.04       36.56       69.37       
C           84.25       37.1        60.62       
N           84.56       34.89       61.37       
C           84.07       35.7        60.47       
C           90.13       39.62       71.96       
C           89.69       40.82       71.32       
S           89.72       38.2        71.06       
H           88.59       41.24       69.48       
H           89.76       41.82       71.75       
C           89.01       40.52       70.13       
C           88.88       39.17       69.88       
C           95.05       36.58       81.63       
N           94.65       37.85       81.43       
C           94.82       35.62       80.58       
C           93.98       38.17       80.31       
C           93.62       37.25       79.28       
C           92.85       38.08       78.29       
C           92.71       39.47       78.93       
N           93.53       39.44       80.06       
C           92.34       37.81       76.97       
C           92.42       36.43       76.34       
N           91.88       36.47       75.07       
C           91.49       37.77       74.74       
C           91.53       40.03       75.52       
C           91.77       38.63       75.83       
C           94.22       35.97       79.37       
O           92.64       35.37       76.89       
O           92.18       40.49       78.55       
C           91.89       35.25       74.25       
C           93.71       40.5        80.96       
H           94.0        40.14       81.93       
H           94.51529    41.17701    80.67494    
H           92.76       41.04       80.88       
H           92.22       35.63       73.28       
H           90.91158    34.77864    74.34284    
H           92.75       34.62       74.57       
H           90.91       41.31       74.06       
H           91.79       40.86       76.21       
H           93.95       35.21       78.69       
H           95.14       34.61       80.73       
C           91.0        40.32       74.28       
N           90.97       38.11       73.62       
C           90.7        39.35       73.3        
C           96.52       34.93       84.88       
C           96.92       36.24       84.92       
S           95.57       34.64       83.46       
H           96.62       38.06       83.76       
H           97.52       36.63       85.71       
C           96.42       36.99       83.82       
C           95.71       36.24       82.88       
C           97.53       25.83       91.0        
N           97.93       27.05       91.45       
C           97.04       25.62       89.76       
C           97.72       28.04       90.68       
C           97.18       28.07       89.37       
C           97.26       29.48       88.88       
C           97.76       30.31       90.11       
N           97.9        29.37       91.14       
C           96.88       30.1        87.67       
C           96.0        29.37       86.63       
N           95.69       30.36       85.66       
C           96.32       31.56       86.07       
C           97.85       32.61       87.58       
C           97.1        31.47       87.24       
C           96.86       26.72       88.88       
O           95.4        28.33       86.68       
O           97.75       31.53       90.36       
C           94.77       30.18       84.52       
C           98.67       29.72       92.27       
H           98.13       29.39       93.17       
H           99.71798    29.42058    92.28361    
H           98.6        30.84       92.39       
H           94.51       31.12       83.91       
H           95.17902    29.4409     83.83113    
H           93.87       29.84       84.92       
H           98.13       34.65       87.12       
H           98.66       32.66       88.29       
H           96.59       26.51       87.87       
H           96.76       24.65       89.45       
C           97.6        33.8        86.84       
N           96.26       32.65       85.35       
C           96.83       33.77       85.7        
C           98.33       22.66       93.1        
C           98.91       23.76       93.7        
S           97.55       23.11       91.6        
H           99.01       26.0        93.34       
H           99.48       23.78       94.62       
C           98.66       24.98       93.01       
C           97.86       24.81       91.95       
C           99.18       11.65       95.11       
N           99.75       12.53       95.95       
C           98.37       12.12       94.04       
C           99.56       13.83       95.66       
C           98.87       14.44       94.58       
C           99.0        15.89       94.68       
C           99.88       16.09       95.9        
N           100.19      14.84       96.4        
C           98.54       16.97       93.9        
C           97.75       16.86       92.62       
N           97.31       18.1        92.18       
C           97.79       19.05       93.09       
C           99.22       19.42       94.88       
C           98.61       18.48       94.03       
C           98.25       13.48       93.82       
O           97.33       15.96       91.99       
O           100.25      17.03       96.49       
C           96.38       18.37       91.06       
C           100.92      14.61       97.66       
H           100.51      13.73       98.15       
H           102.00444   14.64476    97.55573    
H           100.59      15.44       98.27       
H           96.6        19.43       90.7        
H           95.35052    18.25234    91.39826    
H           96.61       17.62       90.32       
H           99.68       21.53       95.23       
H           99.93       19.12       95.63       
H           97.68       13.81       93.0        
H           97.91       11.42       93.3        
C           99.13       20.81       94.63       
N           97.66       20.35       92.84       
C           98.29       21.27       93.62       
C           99.83       8.17        96.71       
C           99.19       7.95        95.52       
S           100.17      9.87        96.89       
H           98.6        9.09        93.75       
H           98.87       6.93        95.3        
C           99.05       9.14        94.75       
C           99.29       10.32       95.48       
C           103.28      1.01        104.48      
N           103.73      2.32        104.47      
C           102.33      0.57        103.53      
C           103.22      3.07        103.51      
C           102.29      2.74        102.52      
C           102.1       3.94        101.66      
C           102.87      5.05        102.43      
N           103.61      4.41        103.39      
C           101.47      4.23        100.49      
C           100.77      3.17        99.67       
N           100.22      3.79        98.55       
C           100.41      5.1         98.6        
C           101.31      6.88        99.87       
C           101.22      5.46        99.72       
C           101.79      1.42        102.56      
O           100.73      2.02        99.82       
O           102.94      6.23        102.18      
C           99.79       3.11        97.35       
C           104.44      5.14        104.32      
H           104.51      4.64        105.33      
H           105.46356   5.16118     103.94587   
H           103.92      6.06        104.33      
H           100.1       3.65        96.51       
H           98.7159     2.95227     97.25235    
H           100.24      2.13        97.3        
H           101.01      8.84        99.01       
H           101.8       7.38        100.69      
H           101.08      1.04        101.87      
H           101.82      -0.39       103.62      
C           100.8       7.76        98.91       
N           99.89       5.95        97.68       
C           100.2       7.27        97.78       
C           105.62      -1.07       106.77      
C           104.48      -1.71       106.6       
S           105.47      0.49        106.07      
H           102.46      -1.44       105.7       
H           104.4       -2.68       106.98      
C           103.43      -1.1        105.85      
C           103.88      0.09        105.42      
C           115.05      -5.47       110.72      
N           114.94      -4.32       110.03      
C           113.88      -6.18       110.94      
C           113.76      -3.8        109.75      
C           112.5       -4.44       109.87      
C           111.5       -3.48       109.35      
C           112.33      -2.28       108.88      
N           113.63      -2.65       109.05      
C           110.07      -3.46       109.24      
C           109.19      -4.59       109.75      
N           107.89      -4.26       109.34      
C           107.81      -3.16       108.55      
C           109.12      -1.37       107.87      
C           109.08      -2.6        108.53      
C           112.62      -5.72       110.43      
O           109.47      -5.54       110.44      
O           112.01      -1.19       108.31      
C           106.84      -5.24       109.5       
C           114.8       -1.8        108.61      
H           115.38      -2.38       107.99      
H           115.28524   -1.21771    109.39332   
H           114.39      -0.97       107.98      
H           107.15      -6.2        109.71      
H           106.17876   -4.98568    110.32836   
H           106.23      -5.28       108.62      
H           108.01      -0.01       106.58      
H           109.96      -0.8        107.63      
H           111.8       -6.38       110.5       
H           113.94      -7.23       111.4       
C           108.02      -0.89       107.18      
N           106.71      -2.65       108.09      
C           106.84      -1.52       107.4       
C           118.56      -6.66       112.05      
C           118.08      -7.66       111.28      
S           117.46      -5.32       112.13      
H           116.45      -7.99       109.93      
H           118.6       -8.65       111.11      
C           116.88      -7.29       110.66      
C           116.35      -6.06       111.02      
C           128.4       -3.89       116.51      
N           128.12      -5.2        116.18      
C           127.39      -2.98       116.47      
C           126.93      -5.55       115.72      
C           125.84      -4.66       115.6       
C           124.71      -5.44       114.98      
C           125.38      -6.78       114.65      
N           126.66      -6.78       115.18      
C           123.36      -5.15       114.73      
C           122.67      -3.91       115.24      
N           121.34      -3.92       114.72      
C           121.14      -5.02       114.0       
C           122.05      -7.05       113.31      
C           122.26      -5.86       114.03      
C           126.15      -3.33       115.99      
O           123.17      -2.99       115.83      
O           124.89      -7.77       114.24      
C           120.31      -2.95       115.0       
C           127.46      -7.99       115.47      
H           126.92      -8.87       115.79      
H           128.21576   -8.20389    114.71424   
H           128.01      -7.84       116.43      
H           119.39      -3.51       115.24      
H           120.06      -2.27856    114.17856   
H           120.72      -2.42       115.89      
H           120.76      -8.23       112.13      
H           122.9       -7.68       113.08      
H           125.36      -2.54       116.01      
H           127.58      -2.06       116.85      
C           120.83      -7.38       112.77      
N           119.9       -5.26       113.46      
C           119.8       -6.46       112.78      
C           131.8       -2.43       117.57      
C           131.99      -3.77       117.25      
S           130.16      -2.05       117.47      
H           130.88      -5.45       116.48      
H           132.93      -4.26       117.33      
C           130.86      -4.41       116.82      
C           129.76      -3.6        116.8       
H           83.51       22.97       21.52       
H           132.58      -1.64       117.74      
