392

C           72.04       15.41       36.68       
N           71.31       16.32       36.17       
C           71.84       14.03       36.38       
C           70.43       15.88       35.3        
C           70.1        14.56       34.86       
C           69.08       14.56       33.76       
C           68.68       16.06       33.73       
N           69.45       16.75       34.62       
C           68.38       13.61       33.0        
C           68.31       12.07       33.24       
N           67.66       11.49       32.2        
C           67.06       12.46       31.41       
C           66.89       14.69       30.97       
C           67.46       13.77       31.85       
C           70.83       13.59       35.48       
O           68.89       11.42       34.08       
O           67.91       16.61       32.99       
C           67.58       10.01       32.11       
C           69.18       18.15       34.87       
H           69.31       18.41       35.93       
H           69.7626     18.77575    34.1939     
H           68.12       18.27       34.77       
H           67.65       9.78        31.05       
H           66.59996    9.67622     32.45088    
H           68.36       9.56        32.66       
H           65.59       15.03       29.19       
H           67.11       15.68       31.08       
H           70.64       12.56       35.4        
H           72.43       13.29       36.88       
C           66.05       14.3        29.89       
N           66.37       12.13       30.34       
C           65.8        13.06       29.53       
C           74.32       17.18       39.31       
C           74.64       15.86       39.39       
S           73.05       17.55       38.21       
H           74.11       14.0        38.19       
H           75.34       15.45       40.15       
C           73.91       15.09       38.41       
C           72.99       15.89       37.66       
C           75.39       26.31       45.6        
N           75.53       25.11       46.19       
C           74.98       26.46       44.29       
C           75.14       24.06       45.44       
C           74.75       24.06       44.08       
C           74.67       22.6        43.72       
C           74.99       21.85       45.02       
N           75.32       22.8        45.94       
C           74.41       21.95       42.5        
C           73.81       22.72       41.34       
N           73.82       21.89       40.27       
C           74.18       20.59       40.63       
C           74.81       19.23       42.46       
C           74.46       20.52       42.02       
C           74.61       25.33       43.54       
O           73.36       23.89       41.2        
O           74.95       20.67       45.27       
C           73.44       22.27       38.93       
C           75.74       22.49       47.32       
H           76.34       23.32       47.69       
H           74.8515     22.39454    47.94415    
H           76.31       21.62       47.29       
H           73.11       21.34       38.5        
H           74.16074    22.86229    38.36625    
H           72.49       22.86       39.18       
H           75.06       17.12       41.95       
H           74.95       19.09       43.48       
H           74.37       25.46       42.55       
H           74.88       27.43       43.81       
C           74.87       18.16       41.58       
N           74.08       19.52       39.85       
C           74.59       18.34       40.24       
C           76.66       28.56       48.54       
C           76.59       29.36       47.47       
S           76.05       27.0        48.17       
H           75.89       29.08       45.3        
H           76.85       30.38       47.48       
C           76.0        28.68       46.33       
C           75.82       27.34       46.5        
C           81.64       30.33       58.19       
N           81.68       31.19       57.24       
C           80.71       29.23       58.22       
C           80.93       30.97       56.21       
C           79.95       29.88       55.98       
C           79.5        29.96       54.59       
C           80.11       31.3        54.13       
N           81.01       31.79       55.09       
C           78.64       29.18       53.8        
C           77.97       27.88       54.35       
N           77.35       27.35       53.22       
C           77.52       28.12       52.06       
C           78.25       30.3        51.48       
C           78.19       29.34       52.45       
C           79.88       28.98       57.13       
O           77.99       27.28       55.44       
O           80.19       31.82       53.05       
C           76.37       26.33       53.3        
C           82.1        32.7        54.7        
H           82.31       32.48       53.72       
H           81.89309    33.76213    54.83104    
H           82.95       32.39       55.28       
H           75.7        26.26       52.41       
H           76.7675     25.31818    53.2205     
H           75.8        26.51       54.17       
H           77.8        30.82       49.5        
H           78.67       31.26       51.59       
H           79.23       28.1        57.11       
H           80.73       28.5        59.1        
C           77.73       29.97       50.23       
N           77.01       27.86       50.84       
C           77.15       28.76       49.9        
C           84.2        31.81       60.66       
C           83.83       30.59       61.13       
S           83.38       32.23       59.18       
H           82.35       28.97       60.62       
H           84.27       30.11       62.05       
C           82.82       29.96       60.42       
C           82.53       30.7        59.27       
C           92.37       37.2        66.21       
N           91.61       37.94       65.42       
C           92.28       35.8        66.33       
C           90.67       37.25       64.75       
C           90.35       35.87       64.83       
C           89.24       35.59       63.87       
C           88.91       36.92       63.28       
N           89.8        37.88       63.86       
C           88.5        34.43       63.49       
C           88.66       33.1        64.23       
N           87.72       32.2        63.75       
C           86.92       32.8        62.79       
C           86.63       34.59       61.44       
C           87.38       34.08       62.49       
C           91.17       35.13       65.72       
O           89.45       32.76       65.02       
O           88.1        37.3        62.45       
C           87.52       30.88       64.32       
C           89.66       39.32       63.75       
H           89.26       39.46       62.71       
H           88.99329    39.7902     64.47285    
H           90.61       39.83       63.84       
H           88.49       30.4        64.32       
H           87.08099    30.92878    65.31649    
H           86.94       30.3        63.63       
H           85.01       34.35       60.03       
H           86.74       35.66       61.12       
H           91.19       34.06       65.71       
H           93.03       35.2        66.88       
C           85.6        33.86       60.83       
N           85.95       32.07       62.17       
C           85.27       32.63       61.19       
C           94.3        38.82       69.13       
C           93.96       39.82       68.26       
S           93.82       37.27       68.51       
H           92.88       40.02       66.32       
H           94.16       40.92       68.48       
C           93.33       39.35       67.06       
C           93.17       37.98       67.08       
C           97.04       37.96       79.69       
N           96.9        39.22       79.24       
C           97.15       36.8        78.92       
C           96.7        39.28       77.86       
C           96.77       38.17       76.91       
C           96.44       38.71       75.59       
C           96.29       40.22       75.81       
N           96.5        40.47       77.14       
C           96.3        38.19       74.31       
C           96.43       36.7        74.0        
N           96.04       36.51       72.71       
C           95.67       37.64       72.1        
C           95.22       39.9        72.56       
C           95.79       38.73       73.03       
C           96.95       36.94       77.49       
O           96.84       35.78       74.65       
O           96.19       41.13       75.03       
C           95.94       35.22       72.01       
C           96.92       41.84       77.63       
H           97.45       42.37       76.8        
H           96.08839    42.44609    77.98942    
H           97.59       41.72       78.47       
H           96.11       35.34       70.91       
H           94.97479    34.72667    72.1244     
H           96.69       34.59       72.41       
H           94.23       40.87       70.82       
H           95.12       40.82       73.11       
H           97.0        36.07       76.86       
H           97.32       35.82       79.32       
C           94.72       39.98       71.23       
N           95.23       37.63       70.87       
C           94.83       38.84       70.44       
C           97.37       37.18       83.41       
C           97.22       38.55       83.3        
S           97.12       36.37       81.86       
H           96.87       40.02       81.6        
H           97.13       39.2        84.12       
C           96.96       38.95       81.97       
C           97.05       37.93       81.11       
C           98.03       30.28       92.25       
N           97.67       31.55       92.38       
C           98.06       29.68       90.98       
C           97.55       32.31       91.27       
C           97.73       31.9        89.88       
C           97.64       33.06       88.98       
C           97.36       34.2        89.93       
N           97.47       33.74       91.25       
C           97.63       33.32       87.6        
C           97.42       32.25       86.58       
N           97.19       32.86       85.38       
C           97.42       34.17       85.44       
C           97.81       35.93       86.94       
C           97.61       34.56       86.81       
C           98.03       30.51       89.82       
O           97.16       31.09       86.75       
O           96.96       35.35       89.72       
C           96.81       32.13       84.22       
C           97.22       34.58       92.41       
H           96.2        34.41       92.74       
H           97.83649    34.35516    93.28034    
H           97.26       35.64       92.08       
H           96.51       32.81       83.39       
H           97.54077    31.45599    83.77302    
H           95.91       31.58       84.51       
H           97.94       37.86       86.01       
H           98.07       36.3        87.9        
H           98.27       30.13       88.83       
H           98.29       28.6        90.88       
C           97.67       36.81       85.84       
N           97.34       34.94       84.36       
C           97.57       36.3        84.56       
C           98.72       27.75       95.15       
C           98.51       28.93       95.74       
S           98.61       27.91       93.41       
H           98.26       31.03       95.1        
H           98.55       29.09       96.74       
C           98.28       29.98       94.78       
C           98.22       29.58       93.47       
C           100.58      17.18       97.99       
N           100.63      18.14       98.99       
C           100.26      17.6        96.69       
C           100.31      19.38       98.56       
C           100.08      19.94       97.23       
C           99.76       21.35       97.41       
C           100.05      21.58       98.91       
N           100.37      20.4        99.53       
C           99.4        22.35       96.52       
C           98.83       22.03       95.16       
N           98.67       23.22       94.43       
C           98.88       24.26       95.29       
C           99.8        24.97       97.4        
C           99.49       23.85       96.57       
C           100.08      18.94       96.3        
O           98.46       20.95       94.75       
O           99.91       22.59       99.51       
C           98.69       23.28       92.95       
C           100.83      20.28       100.92      
H           100.66      19.25       101.21      
H           101.88406   20.47627    101.11627   
H           100.14      20.91       101.58      
H           99.39       24.09       92.65       
H           97.73204    23.52653    92.49215    
H           99.09       22.35       92.62       
H           99.86       27.13       97.52       
H           100.09      24.8        98.39       
H           99.93       19.18       95.23       
H           100.06      16.83       95.87       
C           99.59       26.25       96.89       
N           98.8        25.48       94.81       
C           98.94       26.43       95.72       
C           101.44      13.55       99.25       
C           101.25      13.54       97.91       
S           101.27      15.19       99.9        
H           100.86      14.93       96.29       
H           101.48      12.65       97.3        
C           101.01      14.79       97.34       
C           101.03      15.79       98.32       
C           102.93      4.15        105.27      
N           102.88      5.35        105.84      
C           102.92      4.1         103.83      
C           102.83      6.47        105.12      
C           102.7       6.53        103.71      
C           102.52      7.98        103.28      
C           102.6       8.73        104.61      
N           102.78      7.75        105.58      
C           102.32      8.65        102.06      
C           101.9       7.88        100.75      
N           101.75      8.85        99.73       
C           101.88      10.15       100.26      
C           102.06      11.34       102.18      
C           102.13      10.06       101.62      
C           102.73      5.29        103.1       
O           101.85      6.64        100.51      
O           102.56      9.94        104.85      
C           101.53      8.51        98.35       
C           102.93      8.23        106.95      
H           102.61      7.41        107.61      
H           103.95395   8.51524     107.19136   
H           102.32      9.12        107.08      
H           102.17      9.2         97.81       
H           100.52475   8.75214     98.00513    
H           101.76      7.45        98.18       
H           101.69      13.52       101.89      
H           102.12      11.56       103.19      
H           102.79      5.22        101.96      
H           103.2       3.13        103.39      
C           101.85      12.52       101.46      
N           101.74      11.27       99.52       
C           101.75      12.46       100.1       
C           104.89      1.85        107.7       
C           104.3       1.05        106.77      
S           104.42      3.51        107.48      
H           102.93      1.3         105.13      
H           104.34      -0.07       106.66      
C           103.43      1.78        105.94      
C           103.41      3.11        106.14      
C           113.85      1.25        114.35      
N           113.84      0.54        113.22      
C           112.71      2.01        114.63      
C           112.79      0.55        112.4       
C           111.54      1.26        112.67      
C           110.61      1.06        111.55      
C           111.43      0.21        110.61      
N           112.65      -0.18       111.2       
C           109.33      1.54        111.24      
C           108.64      2.62        112.07      
N           107.41      3.03        111.43      
C           107.23      2.29        110.3       
C           107.95      0.35        109.22      
C           108.27      1.31        110.22      
C           111.55      1.87        113.9       
O           109.07      3.29        113.02      
O           111.11      -0.13       109.45      
C           106.67      4.27        111.75      
C           113.53      -1.2        110.65      
H           113.76      -1.87       111.47      
H           114.36967   -0.73036    110.13766   
H           113.01      -1.82       109.96      
H           106.13      4.66        110.89      
H           106.02447   4.07353     112.60603   
H           107.48      4.95        112.01      
H           106.69      -0.26       107.72      
H           108.62      -0.48       109.11      
H           110.65      2.33        114.27      
H           112.7       2.62        115.5       
C           106.76      0.43        108.55      
N           106.15      2.41        109.55      
C           105.84      1.45        108.7       
C           117.36      0.98        115.91      
C           116.77      1.96        116.6       
S           116.38      0.27        114.64      
H           114.68      2.64        116.77      
H           117.28      2.54        117.39      
C           115.4       2.03        116.26      
C           115.08      1.3         115.13      
C           128.53      0.15        116.42      
N           127.8       -0.66       115.59      
C           127.88      1.05        117.24      
C           126.53      -0.47       115.53      
C           125.73      0.4         116.28      
C           124.31      0.25        115.9       
C           124.42      -0.9        114.88      
N           125.71      -1.16       114.6       
C           123.09      0.84        116.16      
C           123.02      2.09        117.0       
N           121.71      2.45        116.95      
C           120.87      1.53        116.37      
C           120.85      -0.6        115.34      
C           121.66      0.48        115.86      
C           126.51      1.22        117.1       
O           123.92      2.74        117.59      
O           123.52      -1.45       114.31      
C           121.33      3.67        117.54      
C           126.14      -2.31       113.73      
H           125.37      -3.08       113.78      
H           126.39902   -2.00898    112.71492   
H           126.97      -2.75       114.2       
H           120.53      3.49        118.28      
H           121.07012   4.49178     116.87274   
H           122.13      3.99        118.15      
H           118.89      -1.27       114.88      
H           121.22      -1.46       114.87      
H           126.15      2.03        117.78      
H           128.47      1.61        117.91      
C           119.45      -0.47       115.36      
N           119.56      1.66        116.39      
C           118.82      0.69        115.84      
C           132.09      -1.45       117.12      
C           132.14      -0.08       117.51      
S           130.58      -1.75       116.31      
H           130.65      1.48        117.9       
H           133.0       0.35        118.0       
C           130.84      0.5         117.4       
C           129.89      -0.23       116.7       
H           65.67       12.89       28.45       
H           132.99      -1.96       116.85      
