392

C           73.05       19.41       33.88       
N           73.48       20.1        32.81       
C           71.84       18.74       33.78       
C           72.69       20.06       31.69       
C           71.49       19.28       31.48       
C           71.12       19.39       30.05       
C           72.15       20.36       29.46       
N           73.06       20.67       30.5        
C           69.97       18.97       29.35       
C           68.81       18.25       30.07       
N           67.83       18.08       29.11       
C           68.22       18.51       27.81       
C           70.03       19.53       26.77       
C           69.51       19.08       27.96       
C           71.13       18.59       32.62       
O           68.75       17.82       31.15       
O           72.29       20.77       28.35       
C           66.59       17.49       29.48       
C           74.05       21.71       30.4        
H           74.14       22.2        31.39       
H           75.03762    21.29188    30.20536    
H           73.79       22.5        29.65       
H           66.4        16.54       28.92       
H           65.80668    18.24535    29.41705    
H           66.6        17.15       30.5        
H           69.59       20.08       24.69       
H           71.02       20.01       26.67       
H           70.32       17.86       32.62       
H           71.48       18.06       34.59       
C           69.23       19.61       25.64       
N           67.42       18.36       26.75       
C           67.97       18.98       25.67       
C           75.02       20.16       37.07       
C           74.92       18.81       36.96       
S           74.44       20.92       35.58       
H           73.84       17.4        35.73       
H           75.25       18.11       37.72       
C           74.1        18.4        35.93       
C           73.85       19.41       35.06       
C           80.92       26.86       43.46       
N           80.48       25.62       43.84       
C           80.5        27.36       42.31       
C           79.63       24.98       43.1        
C           79.13       25.38       41.82       
C           78.29       24.29       41.32       
C           78.24       23.38       42.48       
N           79.13       23.81       43.44       
C           77.54       24.04       40.13       
C           77.25       25.09       39.07       
N           76.53       24.48       38.04       
C           76.31       23.12       38.38       
C           77.14       21.46       39.84       
C           77.06       22.8        39.53       
C           79.55       26.68       41.46       
O           77.4        26.35       39.03       
O           77.61       22.37       42.71       
C           76.02       25.17       36.86       
C           79.55       23.07       44.64       
H           78.71       22.5        44.95       
H           80.48946    22.528      44.5316     
H           79.6        23.78       45.48       
H           74.92       25.08       36.83       
H           76.46821    24.80583    35.93556    
H           76.17       26.26       36.9        
H           76.16       19.51       39.34       
H           77.68       21.07       40.65       
H           79.23       27.27       40.63       
H           80.92       28.34       42.06       
C           76.29       20.52       39.08       
N           75.73       22.28       37.61       
C           75.65       21.03       38.03       
C           82.71       28.36       46.66       
C           82.79       29.26       45.66       
S           82.04       26.91       46.07       
H           82.16       29.55       43.62       
H           83.12       30.31       45.72       
C           82.2        28.85       44.46       
C           81.63       27.58       44.51       
C           84.75       27.94       57.5        
N           84.99       29.11       56.86       
C           84.23       26.85       56.84       
C           84.63       29.18       55.56       
C           84.09       28.15       54.78       
C           84.16       28.63       53.33       
C           84.7        30.03       53.45       
N           84.97       30.3        54.77       
C           83.83       28.03       52.15       
C           83.6        26.54       51.94       
N           83.26       26.22       50.69       
C           83.3        27.37       49.96       
C           83.86       29.68       49.99       
C           83.65       28.49       50.73       
C           83.85       26.99       55.49       
O           83.71       25.65       52.78       
O           84.87       30.89       52.62       
C           83.15       24.9        50.15       
C           85.87       31.41       55.19       
H           86.58       31.63       54.35       
H           85.29843    32.22854    55.6275     
H           86.46       30.94       55.99       
H           83.99       24.23       50.53       
H           82.23954    24.33916    50.36123    
H           83.31       24.98       49.07       
H           83.62       30.51       48.0        
H           84.28       30.56       50.49       
H           83.3        26.2        55.03       
H           84.26       25.92       57.4        
C           83.58       29.63       48.57       
N           83.14       27.32       48.69       
C           83.17       28.5        48.01       
C           85.77       28.5        61.15       
C           85.43       27.19       61.12       
S           85.72       29.27       59.59       
H           84.5        25.9        59.55       
H           85.49       26.64       61.99       
C           85.0        26.79       59.81       
C           85.2        27.8        58.83       
C           90.41       33.98       69.77       
N           89.77       34.68       68.78       
C           90.43       32.59       69.75       
C           89.26       33.99       67.78       
C           89.26       32.56       67.59       
C           88.56       32.27       66.36       
C           88.12       33.63       65.84       
N           88.74       34.59       66.65       
C           88.38       31.12       65.61       
C           89.19       29.83       65.84       
N           88.79       28.8        64.95       
C           87.81       29.32       64.06       
C           86.51       31.23       63.66       
C           87.54       30.67       64.43       
C           89.86       31.89       68.67       
O           90.18       29.59       66.53       
O           87.5        34.02       64.85       
C           89.54       27.52       64.71       
C           88.71       36.02       66.41       
H           88.57       36.22       65.35       
H           87.97129    36.49009    67.05917    
H           89.69       36.39       66.77       
H           90.59       27.64       64.81       
H           89.02906    26.70392    65.22094    
H           89.38       27.31       63.65       
H           85.08       31.02       62.13       
H           86.11       32.22       63.93       
H           89.89       30.81       68.62       
H           90.97       32.06       70.52       
C           85.86       30.51       62.67       
N           87.29       28.64       63.02       
C           86.32       29.28       62.27       
C           92.34       35.67       72.78       
C           92.38       36.51       71.65       
S           91.43       34.25       72.31       
H           91.32       36.73       69.7        
H           92.92       37.44       71.6        
C           91.51       36.14       70.58       
C           91.15       34.81       70.75       
C           96.12       34.83       83.19       
N           96.32       36.02       82.51       
C           95.43       33.74       82.62       
C           95.8        36.02       81.29       
C           95.2        35.02       80.57       
C           94.88       35.56       79.16       
C           95.46       36.98       79.2        
N           95.85       37.17       80.49       
C           94.23       35.01       78.09       
C           93.59       33.58       78.05       
N           93.14       33.38       76.79       
C           93.35       34.52       75.97       
C           94.2        36.67       75.96       
C           94.03       35.5        76.74       
C           94.95       33.78       81.29       
O           93.45       32.73       78.93       
O           95.41       37.85       78.38       
C           92.75       32.0        76.34       
C           96.19       38.45       81.01       
H           96.62       39.01       80.23       
H           95.33998    39.04712    81.34017    
H           97.08       38.27       81.58       
H           93.19       31.74       75.38       
H           91.6683     31.88136    76.27719    
H           93.26       31.24       76.97       
H           93.6        37.69       74.16       
H           94.67       37.58       76.35       
H           94.36       32.93       80.88       
H           95.27       32.88       83.21       
C           93.63       36.76       74.67       
N           92.93       34.53       74.74       
C           92.98       35.68       74.07       
C           97.28       34.33       86.84       
C           97.52       35.59       86.54       
S           96.6        33.52       85.46       
H           97.2        36.98       84.88       
H           98.0        36.34       87.16       
C           97.13       35.99       85.25       
C           96.7        34.94       84.52       
C           98.11       27.8        95.63       
N           98.79       28.97       95.64       
C           97.61       27.3        94.43       
C           98.82       29.63       94.5        
C           98.29       29.26       93.26       
C           98.44       30.43       92.3        
C           99.27       31.35       93.17       
N           99.49       30.81       94.41       
C           97.93       30.74       91.04       
C           97.05       29.74       90.22       
N           96.73       30.34       89.06       
C           97.29       31.58       89.02       
C           98.6        33.14       90.17       
C           98.08       31.86       90.16       
C           97.69       28.0        93.28       
O           96.67       28.61       90.48       
O           99.67       32.51       92.96       
C           95.61       30.02       88.18       
C           99.67       31.6        95.61       
H           99.11       31.23       96.48       
H           100.70355   31.67734    95.94749    
H           99.15       32.53       95.41       
H           95.15       30.83       87.76       
H           95.92971    29.29718    87.42938    
H           94.89       29.58       88.89       
H           98.85       35.0        89.11       
H           99.04       33.52       91.06       
H           97.26       27.58       92.45       
H           97.25       26.27       94.41       
C           98.38       34.02       89.06       
N           97.1        32.34       87.99       
C           97.6        33.59       88.03       
C           98.3        25.23       98.53       
C           98.76       26.44       99.07       
S           97.96       25.33       96.83       
H           98.98       28.55       98.22       
H           99.12       26.53       100.11      
C           98.66       27.49       98.11       
C           98.19       27.07       96.86       
C           97.98       14.62       102.08      
N           98.53       15.57       102.84      
C           97.44       14.94       100.81      
C           98.4        16.78       102.43      
C           97.88       17.34       101.24      
C           97.96       18.85       101.32      
C           98.63       19.05       102.67      
N           98.88       17.78       103.25      
C           97.63       19.82       100.39      
C           96.83       19.57       99.09       
N           96.96       20.69       98.26       
C           97.54       21.71       98.93       
C           98.21       22.39       101.03      
C           97.81       21.32       100.25      
C           97.45       16.26       100.33      
O           96.45       18.47       98.66       
O           98.87       20.08       103.26      
C           96.45       20.84       96.86       
C           99.17       17.75       104.68      
H           98.54       17.0        105.08      
H           100.19845   17.54011    104.97384   
H           98.85       18.73       105.07      
H           96.78       21.72       96.45       
H           95.38718    20.60984    96.78554    
H           97.03       20.13       96.24       
H           98.66       24.44       101.08      
H           98.31       22.19       102.09      
H           96.97       16.41       99.39       
H           96.84       14.16       100.19      
C           98.4        23.69       100.43      
N           97.64       22.91       98.36       
C           98.23       23.89       99.09       
C           98.16       11.12       103.86      
C           97.21       11.05       102.88      
S           99.0        12.69       103.81      
H           96.48       12.4        101.33      
H           96.66       10.16       102.63      
C           97.16       12.24       102.15      
C           97.94       13.26       102.58      
C           101.3       2.39        110.08      
N           101.98      3.54        110.08      
C           100.15      2.28        109.34      
C           101.54      4.52        109.38      
C           100.42      4.48        108.51      
C           100.38      5.9         107.91      
C           101.64      6.56        108.43      
N           102.19      5.7         109.28      
C           99.49       6.59        107.04      
C           98.24       5.94        106.62      
N           97.58       6.8         105.74      
C           98.24       8.0         105.6       
C           100.24      9.04        106.19      
C           99.44       7.9         106.34      
C           99.85       3.27        108.46      
O           97.79       4.77        106.81      
O           102.12      7.68        108.18      
C           96.5        6.38        104.94      
C           103.26      6.06        110.19      
H           103.14      5.66        111.19      
H           104.2499    5.80362     109.81256   
H           103.2       7.13        110.24      
H           96.74       6.54        103.89      
H           95.58293    6.87646     105.25718   
H           96.41       5.37        105.12      
H           100.42      10.95       105.51      
H           101.12      9.22        106.81      
H           99.04       3.12        107.79      
H           99.6        1.31        109.35      
C           99.72       10.15       105.51      
N           97.75       9.01        104.9       
C           98.54       10.09       104.81      
C           103.24      0.4         112.75      
C           102.41      -0.52       112.15      
S           103.07      2.01        112.15      
H           100.79      -0.45       110.56      
H           102.33      -1.54       112.49      
C           101.56      0.12        111.16      
C           101.9       1.42        110.96      
C           108.88      -1.33       121.81      
N           109.31      -0.25       121.17      
C           107.98      -2.27       121.33      
C           108.8       -0.18       120.02      
C           107.94      -1.05       119.31      
C           107.56      -0.42       118.04      
C           108.43      0.85        118.0       
N           109.06      0.94        119.19      
C           106.69      -0.88       116.99      
C           106.39      -2.31       116.74      
N           105.52      -2.45       115.73      
C           105.19      -1.2        115.22      
C           106.02      0.95        115.27      
C           106.05      -0.3        115.85      
C           107.5       -2.15       120.08      
O           106.77      -3.25       117.39      
O           108.53      1.71        117.19      
C           104.66      -3.66       115.6       
C           109.62      2.18        119.68      
H           110.6       1.98        120.17      
H           108.96787   2.64981     120.41628   
H           109.78      2.82        118.88      
H           105.47      -4.46       115.57      
H           103.83606   -3.74673    116.3083    
H           104.12      -3.58       114.63      
H           105.05      2.15        113.79      
H           106.59      1.76        115.63      
H           106.74      -2.83       119.77      
H           107.78      -3.19       121.85      
C           105.11      1.19        114.2       
N           104.3       -1.04       114.27      
C           104.27      0.18        113.73      
C           111.83      -1.4        124.35      
C           110.74      -1.94       124.98      
S           111.45      -0.95       122.69      
H           108.62      -2.37       124.41      
H           110.75      -2.13       126.02      
C           109.58      -2.11       124.12      
C           109.82      -1.51       122.9       
C           121.58      2.71        127.86      
N           121.53      2.03        126.68      
C           120.48      2.69        128.69      
C           120.31      1.45        126.28      
C           119.13      1.45        127.04      
C           118.08      0.8         126.24      
C           118.9       0.33        125.0       
N           120.18      0.81        125.09      
C           116.75      0.44        126.54      
C           115.99      0.59        127.85      
N           114.76      0.06        127.79      
C           114.48      -0.35       126.45      
C           115.49      -0.65       124.38      
C           115.68      -0.22       125.7       
C           119.2       2.08        128.29      
O           116.35      1.23        128.81      
O           118.54      -0.43       124.09      
C           113.89      0.02        128.97      
C           121.32      0.32        124.32      
H           121.12      -0.56       123.76      
H           121.64811   1.03329     123.56392   
H           122.14      0.08        125.07      
H           113.59      -1.03       129.16      
H           113.03039   0.68457     128.88332   
H           114.58      0.28        129.77      
H           114.16      -1.08       122.85      
H           116.34      -0.67       123.72      
H           118.39      2.24        128.89      
H           120.52      3.07        129.69      
C           114.25      -1.0        123.86      
N           113.34      -0.92       126.1       
C           113.2       -1.12       124.76      
C           124.73      4.41        129.52      
C           125.07      4.05        128.23      
S           123.06      4.03        129.85      
H           123.98      3.1         126.47      
H           126.07      4.16        127.83      
C           123.97      3.43        127.52      
C           122.83      3.33        128.27      
H           67.25       19.41       24.99       
H           125.49      4.79        130.27      
