392

C           81.44       22.98       37.17       
N           80.31       23.12       36.44       
C           82.62       22.55       36.54       
C           80.33       22.72       35.17       
C           81.47       22.26       34.44       
C           80.94       21.98       33.06       
C           79.43       22.27       33.16       
N           79.17       22.67       34.45       
C           81.52       21.4        31.94       
C           82.98       21.0        31.84       
N           83.18       20.3        30.67       
C           82.05       20.32       29.87       
C           79.81       21.16       29.85       
C           81.05       21.04       30.56       
C           82.62       22.16       35.2        
O           83.99       21.06       32.63       
O           78.47       21.9        32.47       
C           84.39       19.45       30.49       
C           78.0        23.52       34.76       
H           77.77       24.28       33.96       
H           77.11509    22.94658    35.03609    
H           78.28       24.11       35.62       
H           84.8        19.57       29.53       
H           84.21104    18.38343    30.62601    
H           85.14       19.79       31.28       
H           78.71       20.72       27.92       
H           78.91       21.63       30.27       
H           83.49       21.61       34.84       
H           83.52       22.35       37.1        
C           79.67       20.64       28.5        
N           81.97       19.81       28.67       
C           80.8        19.95       28.02       
C           81.92       24.07       40.83       
C           80.59       23.64       40.72       
S           82.75       23.49       39.41       
H           79.18       23.21       38.99       
H           79.84       23.93       41.46       
C           80.18       23.42       39.37       
C           81.28       23.26       38.55       
C           88.72       26.29       49.42       
N           87.47       25.92       49.62       
C           89.27       26.19       48.16       
C           86.77       25.47       48.57       
C           87.17       25.59       47.25       
C           86.02       25.18       46.39       
C           84.91       24.98       47.44       
N           85.45       25.15       48.7        
C           85.68       25.19       45.05       
C           86.63       25.85       44.05       
N           86.02       25.63       42.82       
C           84.76       25.03       42.87       
C           83.16       24.28       44.43       
C           84.45       24.83       44.3        
C           88.52       25.9        47.05       
O           87.7        26.4        44.2        
O           83.75       24.78       47.25       
C           86.64       26.09       41.64       
C           84.66       25.45       49.88       
H           83.8        26.02       49.53       
H           84.25784    24.55395    50.35272    
H           85.11       26.17       50.52       
H           85.85       26.72       41.13       
H           86.968      25.26636    41.00587    
H           87.52       26.7        41.89       
H           81.39       23.57       43.36       
H           82.74       23.89       45.31       
H           88.92       25.93       46.03       
H           90.29       26.51       48.07       
C           82.34       24.08       43.27       
N           83.98       24.88       41.84       
C           82.69       24.56       41.99       
C           89.76       27.54       52.99       
C           90.85       27.71       52.19       
S           88.48       26.77       52.13       
H           91.34       27.66       49.93       
H           91.73       28.25       52.59       
C           90.64       27.36       50.78       
C           89.38       26.81       50.61       
C           87.63       28.02       63.91       
N           88.7        28.75       63.39       
C           86.82       27.21       63.11       
C           88.81       28.69       62.1        
C           88.02       28.02       61.13       
C           88.62       28.37       59.8        
C           89.67       29.42       60.09       
N           89.73       29.48       61.49       
C           88.3        27.89       58.48       
C           87.06       27.02       58.14       
N           87.1        26.82       56.76       
C           88.26       27.34       56.2        
C           90.26       28.6        56.63       
C           89.09       28.01       57.18       
C           87.04       27.23       61.68       
O           86.14       26.63       58.9        
O           90.44       29.93       59.32       
C           85.96       26.24       56.09       
C           90.99       29.96       62.2        
H           91.78       29.5        61.72       
H           91.07202    31.04682    62.21367    
H           91.05       29.46       63.23       
H           85.57       25.37       56.58       
H           85.13888    26.92076    55.86542    
H           86.31       25.95       55.11       
H           91.43       28.83       54.83       
H           91.01       29.0        57.27       
H           86.4        26.61       61.08       
H           86.11       26.56       63.6        
C           90.52       28.48       55.28       
N           88.58       27.15       54.91       
C           89.67       27.71       54.43       
C           88.13       28.67       67.78       
C           87.05       27.8        67.65       
S           88.67       29.21       66.17       
H           86.07       26.65       66.03       
H           86.64       27.37       68.53       
C           86.76       27.42       66.27       
C           87.55       28.12       65.32       
C           92.41       31.79       77.68       
N           92.76       32.36       76.53       
C           91.3        30.92       77.63       
C           92.24       32.0        75.41       
C           91.14       31.11       75.26       
C           90.84       31.02       73.74       
C           91.98       31.77       73.11       
N           92.72       32.31       74.16       
C           89.87       30.28       72.95       
C           88.74       29.47       73.59       
N           87.98       28.92       72.53       
C           88.56       29.24       71.27       
C           90.45       30.23       70.26       
C           89.74       29.99       71.49       
C           90.64       30.53       76.47       
O           88.42       29.27       74.76       
O           92.32       31.97       71.92       
C           86.76       28.1        72.69       
C           93.84       33.27       73.95       
H           93.8        34.0        74.74       
H           94.8753     32.92973    73.97172    
H           93.67       33.72       72.98       
H           86.56       27.86       73.72       
H           85.88284    28.64911    72.3477     
H           86.79       27.12       72.2        
H           90.52       29.85       68.12       
H           91.44       30.72       70.25       
H           89.77       29.9        76.54       
H           91.1        30.4        78.56       
C           89.93       29.71       69.08       
N           88.04       28.84       70.15       
C           88.71       29.14       69.04       
C           94.24       32.32       81.0        
C           94.59       33.33       80.18       
S           92.99       31.36       80.3        
H           94.27       33.83       77.98       
H           95.4        33.95       80.53       
C           94.03       33.26       78.84       
C           93.11       32.25       78.81       
C           98.98       28.26       90.09       
N           99.04       29.58       89.84       
C           98.29       27.37       89.32       
C           98.32       29.99       88.8        
C           97.62       29.17       87.91       
C           97.05       30.11       86.88       
C           97.59       31.48       87.29       
N           98.34       31.34       88.46       
C           96.18       30.04       85.78       
C           95.28       28.85       85.59       
N           94.57       29.09       84.46       
C           94.86       30.26       83.86       
C           96.42       31.98       84.03       
C           95.94       30.88       84.58       
C           97.6        27.79       88.2        
O           95.12       27.85       86.31       
O           97.35       32.58       86.86       
C           93.52       28.23       83.97       
C           99.24       32.27       89.1        
H           99.6        32.91       88.33       
H           98.80885    32.81241    89.94143    
H           100.08      31.69       89.46       
H           93.66       28.03       82.89       
H           92.51543    28.47587    84.31422    
H           93.63       27.23       84.42       
H           96.13       33.62       82.57       
H           97.24       32.44       84.49       
H           97.14       27.07       87.6        
H           98.16       26.34       89.65       
C           95.87       32.56       82.9        
N           94.33       30.67       82.73       
C           94.89       31.85       82.21       
C           100.57      26.6        93.23       
C           101.24      27.79       93.09       
S           99.36       26.35       92.04       
H           100.97      29.53       91.82       
H           102.07      28.15       93.69       
C           100.62      28.57       92.04       
C           99.59       27.9        91.37       
C           101.03      18.37       100.76      
N           101.81      19.45       100.82      
C           100.17      18.2        99.67       
C           101.91      20.31       99.82       
C           101.11      20.27       98.65       
C           101.42      21.55       97.91       
C           102.53      22.21       98.81       
N           102.78      21.45       99.91       
C           100.92      22.13       96.75       
C           99.78       21.49       95.91       
N           99.57       22.28       94.84       
C           100.25      23.47       94.86       
C           101.84      24.67       96.17       
C           101.11      23.5        96.05       
C           100.28      19.09       98.6        
O           99.28       20.39       95.99       
O           103.09      23.26       98.64       
C           98.39       22.09       94.01       
C           103.67      21.85       100.95      
H           104.49      22.38       100.52      
H           103.19903   22.45066    101.72813   
H           104.17      20.96       101.37      
H           97.95       23.09       93.77       
H           98.59892    21.62894    93.04466    
H           97.67       21.68       94.66       
H           102.33      26.54       95.25       
H           102.65      24.71       96.94       
H           99.5        19.07       97.83       
H           99.51       17.39       99.62       
C           101.68      25.71       95.17       
N           100.02      24.42       93.98       
C           100.84      25.52       94.18       
C           100.23      15.93       103.62      
C           101.26      16.69       104.03      
S           99.78       16.26       102.01      
H           102.24      18.59       103.36      
H           101.72      16.53       105.0       
C           101.54      17.82       103.11      
C           100.9       17.64       101.97      
C           96.04       7.26        109.17      
N           96.29       8.48        109.72      
C           96.15       7.06        107.82      
C           96.65       9.42        108.89      
C           96.85       9.35        107.44      
C           97.36       10.71       107.05      
C           97.3        11.5        108.33      
N           96.85       10.73       109.36      
C           97.77       11.4        105.94      
C           97.32       10.93       104.59      
N           97.64       11.85       103.67      
C           98.33       12.93       104.27      
C           99.17       13.59       106.37      
C           98.48       12.61       105.64      
C           96.68       8.07        106.98      
O           96.75       9.92        104.24      
O           97.47       12.68       108.54      
C           97.14       11.82       102.33      
C           96.65       11.21       110.67      
H           95.78       10.74       111.07      
H           97.50144    11.05646    111.33301   
H           96.48       12.25       110.67      
H           97.93       11.78       101.62      
H           96.50464    12.68175    102.12552   
H           96.53       10.97       102.2       
H           100.35      15.37       106.2       
H           99.42       13.46       107.39      
H           97.08       7.7         106.02      
H           95.95       6.06        107.46      
C           99.74       14.68       105.67      
N           98.88       13.92       103.59      
C           99.56       14.84       104.32      
C           96.0        5.58        112.58      
C           95.41       4.68        111.67      
S           96.31       7.0         111.75      
H           95.07       4.44        109.45      
H           95.11       3.63        111.86      
C           95.47       5.01        110.31      
C           95.85       6.32        110.2       
C           99.76       2.49        122.68      
N           99.85       3.8         122.25      
C           99.1        1.59        121.88      
C           99.36       4.14        121.11      
C           98.73       3.24        120.12      
C           98.41       4.06        118.94      
C           99.0        5.46        119.34      
N           99.58       5.39        120.57      
C           97.64       3.85        117.74      
C           97.0        2.48        117.51      
N           96.4        2.58        116.23      
C           96.61       3.84        115.65      
C           97.72       5.89        115.97      
C           97.42       4.64        116.5       
C           98.65       1.91        120.6       
O           96.96       1.47        118.2       
O           98.95       6.52        118.69      
C           95.83       1.39        115.53      
C           100.01      6.55        121.31      
H           99.91       6.44        122.42      
H           101.08156   6.68051     121.15888   
H           99.47       7.42        120.96      
H           96.35       1.19        114.6       
H           94.75289    1.42409     115.36639   
H           95.96       0.64        116.29      
H           97.42       7.26        114.38      
H           98.2        6.65        116.58      
H           98.19       1.11        119.99      
H           99.22       0.57        122.12      
C           97.21       6.24        114.71      
N           96.17       4.18        114.45      
C           96.56       5.32        113.94      
C           102.09      1.86        125.72      
C           101.1       0.93        125.67      
S           101.74      3.02        124.48      
H           99.3        0.38        124.56      
H           101.08      0.09        126.36      
C           100.17      1.0         124.61      
C           100.5       2.04        123.83      
C           110.47      2.91        132.98      
N           110.13      3.95        132.25      
C           109.5       1.91        133.2       
C           109.09      3.86        131.44      
C           108.2       2.75        131.32      
C           107.2       3.01        130.22      
C           107.64      4.41        129.77      
N           108.72      4.83        130.52      
C           106.17      2.27        129.68      
C           105.71      0.94        130.26      
N           104.56      0.47        129.59      
C           104.27      1.36        128.56      
C           104.91      3.42        127.61      
C           105.21      2.45        128.58      
C           108.47      1.79        132.3       
O           106.15      0.28        131.23      
O           107.08      5.1         128.98      
C           104.38      -0.94       129.45      
C           109.32      6.13        130.28      
H           110.43      6.11        130.31      
H           109.13658   6.84252     131.08423   
H           109.07      6.55        129.29      
H           105.11      -1.64       129.77      
H           103.40852   -1.29644    129.79246   
H           104.14      -1.06       128.44      
H           103.83      3.85        125.86      
H           105.38      4.36        127.45      
H           107.87      1.0         132.41      
H           109.62      1.12        133.98      
C           103.9       3.17        126.71      
N           103.26      1.12        127.7       
C           103.15      2.05        126.69      
C           113.48      4.25        135.14      
C           113.19      2.98        135.59      
S           112.37      4.7         133.91      
H           111.83      1.26        135.05      
H           113.7       2.46        136.34      
C           112.22      2.27        134.74      
C           111.65      3.13        133.82      
C           121.69      9.51        140.14      
N           121.33      10.07       138.99      
C           121.2       8.36        140.6       
C           120.45      9.38        138.26      
C           119.84      8.12        138.6       
C           118.83      7.84        137.55      
C           119.04      8.93        136.49      
N           120.06      9.75        136.98      
C           117.97      6.76        137.41      
C           118.15      5.5         138.29      
N           117.11      4.71        137.98      
C           116.28      5.22        137.05      
C           115.97      7.03        135.54      
C           116.72      6.48        136.59      
C           120.26      7.63        139.87      
O           119.14      5.11        138.95      
O           118.54      8.98        135.37      
C           117.02      3.3         138.26      
C           120.95      10.48       136.16      
H           121.04      10.01       135.17      
H           120.59849   11.49792    135.99157   
H           121.96      10.46       136.46      
H           116.78      2.69        137.42      
H           116.35702   3.11157     139.10443   
H           118.02      2.99        138.56      
H           114.12      6.75        134.37      
H           116.27      8.01        135.15      
H           119.78      6.79        140.44      
H           121.5       7.92        141.53      
C           114.8       6.34        135.09      
N           115.21      4.51        136.63      
C           114.51      5.11        135.65      
C           123.88      12.31       141.59      
C           124.08      11.19       142.31      
S           122.82      11.98       140.19      
H           123.61      9.09        142.33      
H           124.79      11.12       143.12      
C           123.49      10.04       141.8       
C           122.62      10.35       140.77      
H           80.65       19.36       27.15       
H           124.3       13.29       141.87      
