392

C           80.3        22.15       27.81       
N           79.19       22.46       27.15       
C           81.39       21.58       27.21       
C           79.11       22.14       25.88       
C           80.08       21.39       25.17       
C           79.58       21.27       23.71       
C           78.2        21.96       23.82       
N           78.0        22.38       25.09       
C           80.19       20.81       22.6        
C           81.38       19.85       22.66       
N           81.62       19.56       21.33       
C           80.84       20.31       20.48       
C           79.0        21.79       20.4        
C           79.8        21.04       21.19       
C           81.23       21.18       25.87       
O           81.94       19.4        23.57       
O           77.34       22.1        22.93       
C           82.59       18.56       20.87       
C           76.9        23.21       25.4        
H           76.55       23.78       24.49       
H           76.07518    22.58777    25.74729    
H           77.15       23.9        26.17       
H           83.02       18.85       19.89       
H           82.13155    17.57863    20.74822    
H           83.41       18.53       21.53       
H           78.55       22.42       18.44       
H           78.28       22.49       20.77       
H           82.06       20.66       25.46       
H           82.3        21.31       27.76       
C           79.17       21.81       19.05       
N           80.9        20.13       19.19       
C           80.11       20.95       18.47       
C           80.79       22.75       31.69       
C           79.47       22.87       31.39       
S           81.69       22.21       30.27       
H           78.23       23.04       29.59       
H           78.72       23.11       32.17       
C           79.22       22.78       30.01       
C           80.28       22.33       29.27       
C           86.98       24.38       40.71       
N           85.6        24.33       40.8        
C           87.62       24.2        39.5        
C           84.93       24.17       39.63       
C           85.53       24.04       38.33       
C           84.41       23.98       37.33       
C           83.15       24.15       38.27       
N           83.57       24.32       39.57       
C           84.27       23.75       35.96       
C           85.42       23.74       34.94       
N           84.91       23.38       33.75       
C           83.57       23.24       33.82       
C           81.77       23.17       35.28       
C           83.11       23.44       35.17       
C           86.93       23.98       38.29       
O           86.55       24.0        35.16       
O           81.97       24.37       38.01       
C           85.73       22.97       32.68       
C           82.61       24.33       40.62       
H           83.14       24.13       41.54       
H           82.23139    25.3256     40.85137    
H           81.98       23.44       40.51       
H           85.26       23.28       31.77       
H           85.93674    21.90064    32.63723    
H           86.68       23.56       32.64       
H           79.88       22.9        34.22       
H           81.3        23.21       36.22       
H           87.49       23.64       37.36       
H           88.76       24.08       39.54       
C           80.92       23.04       34.15       
N           82.82       23.02       32.73       
C           81.54       22.8        32.97       
C           88.39       24.9        44.31       
C           89.4        24.44       43.51       
S           87.03       25.25       43.24       
H           89.77       23.95       41.42       
H           90.4        24.12       43.9        
C           89.05       24.22       42.19       
C           87.78       24.51       41.91       
C           88.3        26.3        55.27       
N           89.36       26.64       54.56       
C           87.12       26.01       54.61       
C           89.33       26.63       53.2        
C           88.23       26.19       52.48       
C           88.66       26.33       51.06       
C           90.09       26.7        51.15       
N           90.5        26.84       52.46       
C           87.99       26.07       49.84       
C           86.44       26.1        49.79       
N           86.09       25.83       48.46       
C           87.24       25.7        47.65       
C           89.59       25.59       47.78       
C           88.44       25.85       48.47       
C           87.09       25.91       53.24       
O           85.67       26.22       50.72       
O           90.91       26.79       50.22       
C           84.81       25.46       48.07       
C           91.86       27.19       52.97       
H           92.53       27.19       52.09       
H           91.97555    28.07827    53.59107    
H           92.11       26.31       53.53       
H           84.44       24.72       48.75       
H           84.1063     26.29165    48.10554    
H           84.86       24.98       47.08       
H           90.47       25.12       45.91       
H           90.52       25.65       48.29       
H           86.24       25.44       52.83       
H           86.29       25.65       55.21       
C           89.54       25.19       46.48       
N           87.15       25.3        46.39       
C           88.36       25.09       45.77       
C           89.56       26.44       58.89       
C           88.19       26.16       58.97       
S           90.04       26.87       57.32       
H           86.6        25.84       57.51       
H           87.54       25.93       59.78       
C           87.64       26.15       57.67       
C           88.53       26.37       56.68       
C           95.96       27.61       67.73       
N           95.98       28.61       66.87       
C           95.24       26.37       67.57       
C           95.3        28.4        65.78       
C           94.48       27.26       65.52       
C           93.72       27.63       64.28       
C           94.42       28.8        63.67       
N           95.17       29.39       64.71       
C           92.63       27.04       63.62       
C           91.67       26.19       64.38       
N           90.56       25.97       63.6        
C           90.86       26.32       62.28       
C           92.44       27.5        60.94       
C           92.08       27.02       62.21       
C           94.46       26.24       66.45       
O           91.71       26.0        65.59       
O           94.14       29.44       62.66       
C           89.51       25.12       64.08       
C           95.88       30.62       64.68       
H           95.57       31.21       65.59       
H           96.94613    30.57819    64.45702    
H           95.58       31.21       63.83       
H           89.82       24.49       64.94       
H           88.55108    25.62062    64.21397    
H           89.34       24.39       63.3        
H           91.89       27.64       58.92       
H           93.32       28.13       60.74       
H           93.85       25.31       66.32       
H           95.32       25.51       68.32       
C           91.57       27.33       59.9        
N           90.1        26.08       61.19       
C           90.46       26.58       60.02       
C           97.77       27.71       71.23       
C           97.71       28.99       70.75       
S           96.99       26.65       70.16       
H           96.91       30.01       68.92       
H           98.25       29.82       71.16       
C           96.98       29.06       69.49       
C           96.54       27.89       69.01       
C           101.1       23.93       81.1        
N           101.01      25.24       80.79       
C           100.98      23.01       80.07       
C           100.68      25.65       79.59       
C           100.49      24.82       78.5        
C           100.15      25.68       77.31       
C           100.29      27.06       77.86       
N           100.48      27.03       79.19       
C           99.76       25.37       76.0        
C           99.92       24.04       75.23       
N           99.5        24.21       73.96       
C           99.18       25.52       73.76       
C           98.86       27.59       74.77       
C           99.28       26.31       74.94       
C           100.62      23.45       78.81       
O           100.07      22.97       75.69       
O           100.46      28.08       77.26       
C           99.43       23.21       72.85       
C           100.73      28.2        79.98       
H           101.3       28.98       79.4        
H           99.87446    28.51634    80.57672    
H           101.41      27.93       80.76       
H           99.97       23.61       71.93       
H           98.3886     22.98241    72.62241    
H           99.87       22.28       73.32       
H           98.19       29.2        73.57       
H           98.91       28.26       75.61       
H           100.45      22.72       78.02       
H           101.29      22.0        80.31       
C           98.35       28.1        73.63       
N           98.68       25.95       72.59       
C           98.31       27.25       72.51       
C           102.06      22.89       84.74       
C           102.72      24.08       84.52       
S           101.14      22.35       83.38       
H           103.07      25.4        82.68       
H           103.4       24.54       85.22       
C           102.59      24.55       83.19       
C           101.66      23.75       82.47       
C           100.05      16.73       93.55       
N           100.26      18.07       93.64       
C           99.88       16.13       92.3        
C           100.51      18.67       92.52       
C           100.42      18.15       91.18       
C           100.84      19.31       90.34       
C           101.2       20.43       91.31       
N           100.94      19.95       92.62       
C           101.05      19.46       88.97       
C           100.44      18.44       88.0        
N           100.51      19.01       86.73       
C           101.32      20.1        86.79       
C           102.26      21.78       88.23       
C           101.66      20.52       88.11       
C           100.08      16.84       91.09       
O           99.74       17.37       88.18       
O           101.85      21.44       91.05       
C           99.64       18.6        85.64       
C           101.03      20.71       93.86       
H           102.09      20.87       94.22       
H           100.55383   21.68431    93.75011    
H           100.4       20.24       94.65       
H           99.19       19.49       85.29       
H           100.06867   18.11959    84.76048    
H           98.84       17.94       86.02       
H           103.03      23.53       87.23       
H           102.51      22.15       89.21       
H           100.27      16.22       90.16       
H           99.92       15.07       92.26       
C           102.52      22.56       87.06       
N           101.4       20.89       85.76       
C           102.05      22.06       85.89       
C           100.01      14.6        96.71       
C           100.24      15.88       97.15       
S           99.77       14.48       95.01       
H           100.46      17.88       96.21       
H           100.6       16.1        98.13       
C           100.25      16.8        96.02       
C           100.03      16.15       94.83       
C           97.7        5.61        102.55      
N           98.53       6.46        103.1       
C           97.18       5.8         101.25      
C           98.89       7.52        102.36      
C           98.49       7.81        101.0       
C           99.14       9.08        100.56      
C           99.68       9.6         101.88      
N           99.61       8.59        102.84      
C           99.24       9.76        99.35       
C           98.86       9.07        98.1        
N           98.96       10.01       97.1        
C           99.39       11.26       97.59       
C           99.73       12.31       99.64       
C           99.46       11.15       98.95       
C           97.56       6.85        100.52      
O           98.62       7.84        97.96       
O           100.27      10.6        102.14      
C           98.82       9.8         95.68       
C           99.9        8.85        104.27      
H           99.13       8.5         104.91      
H           100.76522   8.30392     104.64588   
H           100.04      9.89        104.42      
H           99.68       10.16       95.16       
H           97.88761    10.11317    95.21025    
H           98.95       8.74        95.62       
H           100.05      14.47       99.46       
H           99.78       12.35       100.74      
H           97.13       6.88        99.55       
H           96.42       5.11        100.85      
C           99.82       13.51       98.9        
N           99.55       12.35       96.82       
C           99.83       13.5        97.52       
C           97.63       2.77        105.3       
C           96.7        2.52        104.37      
S           98.26       4.31        104.94      
H           96.17       3.25        102.36      
H           96.22       1.57        104.38      
C           96.66       3.42        103.24      
C           97.47       4.5         103.43      
C           100.51      -4.32       113.36      
N           101.0       -3.03       113.31      
C           99.48       -4.71       112.48      
C           100.53      -2.22       112.41      
C           99.55       -2.5        111.39      
C           99.4        -1.25       110.65      
C           100.42      -0.34       111.19      
N           100.95      -0.97       112.24      
C           98.58       -0.86       109.53      
C           97.41       -1.65       108.96      
N           96.89       -1.04       107.88      
C           97.58       0.1         107.59      
C           99.24       1.54        108.4       
C           98.58       0.31        108.56      
C           99.01       -3.73       111.56      
O           97.05       -2.74       109.38      
O           100.58      0.87        110.92      
C           95.62       -1.42       107.28      
C           101.69      -0.26       113.24      
H           101.45      -0.6        114.28      
H           102.77016   -0.2673     113.09403   
H           101.33      0.81        113.27      
H           95.63       -1.24       106.16      
H           94.74694    -0.93807    107.72002   
H           95.55       -2.52       107.4       
H           99.45       3.38        107.19      
H           100.15      1.83        108.96      
H           98.23       -4.09       110.94      
H           99.02       -5.75       112.49      
C           98.92       2.42        107.34      
N           97.26       0.87        106.57      
C           97.92       2.06        106.49      
C           101.77      -5.47       116.83      
C           101.02      -6.53       116.29      
S           102.03      -4.29       115.58      
H           99.89       -6.98       114.33      
H           100.82      -7.39       116.82      
C           100.47      -6.31       115.02      
C           100.93      -5.08       114.53      
C           107.11      -5.32       126.54      
N           107.49      -4.77       125.39      
C           105.83      -5.82       126.6       
C           106.75      -4.69       124.35      
C           105.45      -5.25       124.24      
C           105.03      -5.04       122.79      
C           106.27      -4.32       122.23      
N           107.14      -3.95       123.25      
C           103.92      -5.36       122.03      
C           102.97      -6.51       122.45      
N           102.18      -6.82       121.35      
C           102.55      -5.96       120.29      
C           103.89      -4.14       119.61      
C           103.53      -5.03       120.66      
C           104.95      -5.79       125.46      
O           103.0       -7.2        123.45      
O           106.37      -3.71       121.21      
C           101.12      -7.81       121.37      
C           108.42      -3.32       123.08      
H           109.13      -3.7        123.67      
H           108.39111   -2.25841    123.32554   
H           108.74      -3.42       122.02      
H           101.49      -8.76       121.71      
H           100.18437   -7.52648    121.85199   
H           100.83      -7.93       120.35      
H           103.7       -3.66       117.57      
H           104.7       -3.48       119.65      
H           103.93      -6.18       125.46      
H           105.45      -6.17       127.56      
C           103.38      -4.27       118.34      
N           101.98      -6.13       119.04      
C           102.41      -5.25       118.13      
C           109.72      -4.48       129.24      
C           109.15      -5.73       129.64      
S           109.11      -3.89       127.71      
H           107.42      -6.89       128.96      
H           109.26      -6.12       130.6       
C           108.1       -6.06       128.69      
C           108.08      -5.25       127.58      
C           117.91      0.77        134.81      
N           117.41      1.34        133.66      
C           117.5       -0.47       135.23      
C           116.51      0.65        133.01      
C           115.87      -0.57       133.42      
C           114.83      -0.94       132.47      
C           114.84      0.31        131.5       
N           115.95      1.06        131.81      
C           113.92      -1.98       132.36      
C           113.77      -3.14       133.36      
N           112.81      -3.97       132.89      
C           112.14      -3.54       131.79      
C           112.4       -1.95       130.05      
C           112.82      -2.34       131.39      
C           116.43      -1.1        134.64      
O           114.3       -3.22       134.36      
O           114.1       0.65        130.51      
C           112.33      -4.96       133.82      
C           116.64      1.98        130.87      
H           116.27      1.94        129.87      
H           116.66901   3.01727     131.20367   
H           117.64      1.6         130.71      
H           112.16      -5.88       133.32      
H           111.42772   -4.64962    134.34693   
H           113.09      -5.18       134.55      
H           111.05      -2.26       128.42      
H           112.95      -1.16       129.59      
H           116.03      -1.97       135.12      
H           117.94      -0.88       136.15      
C           111.32      -2.55       129.37      
N           111.17      -4.22       131.12      
C           110.73      -3.68       129.92      
C           120.28      3.6         136.19      
C           120.4       2.5         137.04      
S           119.32      3.06        134.87      
H           119.54      0.47        137.32      
H           121.01      2.56        137.96      
C           119.64      1.38        136.67      
C           118.94      1.52        135.47      
H           80.39       21.09       17.43       
H           120.53      4.6         136.47      
