392

C           84.61       27.9        39.24       
N           83.74       27.77       38.16       
C           85.96       27.37       39.23       
C           84.27       27.17       37.14       
C           85.51       26.47       36.96       
C           85.54       25.81       35.61       
C           84.14       26.2        35.1        
N           83.48       26.97       36.02       
C           86.43       25.1        34.81       
C           87.83       24.8        35.26       
N           88.44       24.09       34.28       
C           87.64       23.89       33.22       
C           85.4        24.14       32.47       
C           86.38       24.39       33.47       
C           86.31       26.55       38.15       
O           88.34       24.99       36.4        
O           83.59       25.97       33.98       
C           89.63       23.35       34.54       
C           82.4        27.78       35.57       
H           82.58       28.06       34.49       
H           81.41761    27.31048    35.51944    
H           82.31       28.66       36.19       
H           90.27       23.42       33.65       
H           89.38331    22.29469    34.65649    
H           90.15       23.87       35.39       
H           84.98       23.43       30.46       
H           84.39       24.47       32.57       
H           87.23       25.96       38.18       
H           86.51       27.35       40.15       
C           85.75       23.51       31.25       
N           87.94       23.23       32.08       
C           87.08       23.09       30.98       
C           83.73       29.64       42.69       
C           82.62       29.46       41.97       
S           85.05       28.94       41.79       
H           81.92       28.52       40.13       
H           81.63       29.84       42.28       
C           82.77       28.79       40.72       
C           84.03       28.49       40.46       
C           86.08       34.86       52.18       
N           84.88       34.33       51.98       
C           87.02       34.93       51.15       
C           84.57       33.92       50.73       
C           85.46       33.74       49.62       
C           84.76       32.85       48.6        
C           83.4        32.68       49.18       
N           83.38       33.31       50.38       
C           85.13       32.33       47.38       
C           86.61       32.31       46.94       
N           86.67       31.6        45.73       
C           85.43       31.28       45.35       
C           83.13       31.41       45.88       
C           84.39       31.71       46.29       
C           86.72       34.45       49.85       
O           87.58       32.78       47.51       
O           82.55       31.93       48.8        
C           87.83       31.47       44.86       
C           82.28       33.05       51.34       
H           82.66       32.89       52.35       
H           81.58931    33.89022    51.41121    
H           81.85       32.12       51.06       
H           87.51       31.54       43.84       
H           88.43895    30.58491    45.0441     
H           88.44       32.38       44.99       
H           81.94       30.23       44.48       
H           82.36       31.75       46.56       
H           87.45       34.46       49.11       
H           88.04       35.39       51.4        
C           82.93       30.64       44.73       
N           85.23       30.65       44.21       
C           84.0        30.37       43.93       
C           86.4        36.28       55.81       
C           87.18       37.07       54.97       
S           85.31       35.31       54.86       
H           87.69       37.03       52.83       
H           87.82       37.9        55.33       
C           87.11       36.61       53.61       
C           86.16       35.65       53.4        
C           84.8        36.28       66.89       
N           85.01       37.38       66.22       
C           84.56       35.1        66.23       
C           85.15       37.35       64.9        
C           85.07       36.18       64.1        
C           85.44       36.62       62.72       
C           85.78       38.09       62.84       
N           85.46       38.41       64.15       
C           85.43       36.07       61.47       
C           84.83       34.67       61.14       
N           84.85       34.37       59.77       
C           85.38       35.43       59.13       
C           86.43       37.54       59.41       
C           85.8        36.42       60.08       
C           84.56       35.06       64.8        
O           84.35       33.86       61.9        
O           85.99       38.96       62.0        
C           84.37       33.19       59.16       
C           85.16       39.73       64.6        
H           84.53       39.69       65.49       
H           86.05997    40.3349     64.71065    
H           84.55       40.11       63.85       
H           84.15       33.32       58.12       
H           85.12106    32.40384    59.23721    
H           83.45       32.89       59.68       
H           87.2        38.43       57.56       
H           86.76       38.38       59.88       
H           84.46       34.12       64.27       
H           84.37       34.25       66.83       
C           86.68       37.52       58.03       
N           85.53       35.47       57.81       
C           86.19       36.51       57.26       
C           85.47       37.15       70.52       
C           85.06       35.86       70.53       
S           85.12       37.89       69.02       
H           84.5        34.33       69.0        
H           85.08       35.27       71.43       
C           84.73       35.37       69.25       
C           84.82       36.37       68.3        
C           90.52       42.29       78.86       
N           89.8        43.02       77.98       
C           90.46       40.89       78.95       
C           88.96       42.3        77.27       
C           88.76       40.88       77.14       
C           87.88       40.61       75.98       
C           87.32       42.01       75.69       
N           88.06       42.95       76.44       
C           87.58       39.44       75.27       
C           87.81       38.04       75.77       
N           87.34       37.13       74.83       
C           86.89       37.83       73.7        
C           86.58       40.03       72.84       
C           87.03       39.24       73.9        
C           89.6        40.18       78.1        
O           88.13       37.69       76.87       
O           86.45       42.38       74.89       
C           87.69       35.7        74.83       
C           88.03       44.41       76.15       
H           87.79       44.49       75.08       
H           87.51069    45.11177    76.80264    
H           89.09       44.74       76.16       
H           88.37       35.34       75.62       
H           86.80906    35.06061    74.77317    
H           88.33       35.53       73.97       
H           85.79       39.95       70.78       
H           86.6        41.09       72.82       
H           89.51       39.14       78.23       
H           91.15       40.38       79.69       
C           86.14       39.34       71.67       
N           86.37       37.23       72.64       
C           86.01       37.94       71.62       
C           93.36       43.6        81.11       
C           92.78       44.7        80.59       
S           92.5        42.11       80.68       
H           91.27       45.14       78.97       
H           93.08       45.73       80.81       
C           91.83       44.41       79.61       
C           91.53       43.04       79.6        
C           100.72      42.52       89.37       
N           100.54      43.7        88.73       
C           99.98       41.4        89.04       
C           99.61       43.79       87.8        
C           98.85       42.7        87.32       
C           97.99       43.27       86.25       
C           98.36       44.74       86.28       
N           99.36       44.97       87.19       
C           97.05       42.72       85.4        
C           96.75       41.22       85.27       
N           95.84       40.97       84.29       
C           95.44       42.2        83.74       
C           95.9        44.55       83.75       
C           96.17       43.29       84.35       
C           99.16       41.43       87.94       
O           97.17       40.25       85.91       
O           97.94       45.59       85.61       
C           95.16       39.69       84.02       
C           99.6        46.24       87.82       
H           99.32       47.14       87.23       
H           99.02481    46.31101    88.74315    
H           100.7       46.34       87.9        
H           94.98       39.51       82.92       
H           94.26987    39.55577    84.63461    
H           95.86       38.9        84.39       
H           94.68       45.59       82.32       
H           96.28       45.42       84.07       
H           98.63       40.54       87.62       
H           99.96       40.51       89.56       
C           94.94       44.61       82.73       
N           94.6        42.24       82.76       
C           94.29       43.48       82.2        
C           102.64      42.13       92.64       
C           103.24      43.24       92.02       
S           101.52      41.36       91.59       
H           103.04      44.35       90.09       
H           104.01      43.83       92.47       
C           102.66      43.53       90.7        
C           101.7       42.57       90.38       
C           104.21      35.4        101.39      
N           105.18      36.29       101.0       
C           103.03      35.35       100.61      
C           105.04      37.05       99.89       
C           103.88      37.09       99.07       
C           104.04      38.15       98.09       
C           105.41      38.74       98.42       
N           105.93      38.04       99.52       
C           103.2       38.63       97.04       
C           101.86      38.04       96.62       
N           101.25      38.9        95.77       
C           102.15      39.94       95.39       
C           104.33      40.69       95.64       
C           103.34      39.78       96.08       
C           102.9       36.21       99.51       
O           101.22      37.08       97.03       
O           106.07      39.65       97.89       
C           100.0       38.59       95.15       
C           107.36      37.98       99.73       
H           107.81      38.33       98.87       
H           107.59447   38.45605    100.6821    
H           107.67      36.92       99.74       
H           99.5        39.43       94.59       
H           100.06502   37.82425    94.37702    
H           99.29       38.31       95.95       
H           104.82      42.34       94.12       
H           105.33      40.71       95.96       
H           101.93      36.22       98.96       
H           102.11      34.86       100.95      
C           104.08      41.65       94.55       
N           101.9       40.73       94.39       
C           102.85      41.54       93.95       
C           104.75      32.98       104.37      
C           105.3       34.21       104.74      
S           104.0       33.06       102.81      
H           105.54      36.22       103.86      
H           105.77      34.32       105.76      
C           104.98      35.24       103.83      
C           104.34      34.75       102.7       
C           103.61      23.11       109.21      
N           104.22      24.05       109.9       
C           103.0       23.34       107.98      
C           104.28      25.19       109.29      
C           103.85      25.59       108.01      
C           104.27      26.97       107.73      
C           104.78      27.41       109.1       
N           104.82      26.31       109.9       
C           104.2       27.83       106.61      
C           103.88      27.36       105.14      
N           103.75      28.44       104.38      
C           104.13      29.55       105.05      
C           104.7       30.38       107.16      
C           104.39      29.25       106.41      
C           103.3       24.55       107.29      
O           103.92      26.19       104.69      
O           105.21      28.46       109.49      
C           103.48      28.37       102.91      
C           104.92      26.47       111.36      
H           104.29      25.66       111.82      
H           105.95618   26.4628     111.6982    
H           104.49      27.43       111.69      
H           104.36      28.77       102.41      
H           102.55296   28.86161    102.61503   
H           103.51      27.31       102.75      
H           105.36      32.4        107.02      
H           105.06      30.27       108.19      
H           102.8       24.67       106.34      
H           102.55      22.54       107.48      
C           104.86      31.61       106.46      
N           104.24      30.68       104.43      
C           104.54      31.74       105.16      
C           103.8       19.99       111.5       
C           103.03      19.58       110.44      
S           104.24      21.7        111.41      
H           102.1       20.62       108.83      
H           102.75      18.6        110.12      
C           102.77      20.68       109.62      
C           103.49      21.8        109.89      
C           105.89      12.91       119.85      
N           106.79      13.78       119.42      
C           104.72      12.83       119.17      
C           106.53      14.63       118.42      
C           105.37      14.61       117.7       
C           105.43      15.71       116.68      
C           106.88      16.27       116.96      
N           107.51      15.58       117.94      
C           104.64      16.21       115.61      
C           103.3       15.56       115.25      
N           102.71      16.45       114.37      
C           103.59      17.48       114.0       
C           105.7       18.31       114.22      
C           104.78      17.34       114.68      
C           104.43      13.64       118.06      
O           102.6       14.69       115.74      
O           107.5       17.27       116.54      
C           101.39      16.25       113.87      
C           108.83      15.72       118.51      
H           108.87      15.38       119.61      
H           109.59214   15.25702    117.88319   
H           109.0       16.77       118.63      
H           101.44      16.18       112.76      
H           100.68449   16.97006    114.28458   
H           101.14      15.22       114.1       
H           106.27      19.72       112.82      
H           106.64      18.4        114.68      
H           103.46      13.55       117.56      
H           104.03      12.04       119.48      
C           105.49      19.13       113.16      
N           103.31      18.32       113.09      
C           104.26      19.14       112.65      
C           107.58      10.96       122.72      
C           106.33      10.44       122.69      
S           107.84      12.17       121.46      
H           104.44      10.8        121.55      
H           105.93      9.79        123.41      
C           105.53      11.05       121.63      
C           106.26      12.02       120.96      
C           114.3       8.52        131.12      
N           114.77      9.26        130.15      
C           112.98      8.04        131.12      
C           113.95      9.54        129.13      
C           112.57      9.05        128.95      
C           112.06      9.55        127.62      
C           113.29      10.26       127.06      
N           114.3       10.24       128.0       
C           110.87      9.45        126.99      
C           109.76      8.47        127.42      
N           108.71      8.54        126.5       
C           108.95      9.52        125.56      
C           110.62      11.16       124.86      
C           110.24      10.08       125.8       
C           112.11      8.28        130.04      
O           109.61      7.78        128.42      
O           113.39      10.59       125.9       
C           107.57      7.66        126.49      
C           115.67      10.32       127.57      
H           116.19      9.45        127.75      
H           116.2005    11.13392    128.06417   
H           115.62      10.45       126.52      
H           107.84      6.7         126.95      
H           106.66895   8.12116     126.89441   
H           107.22      7.55        125.5       
H           109.89      12.13       123.12      
H           111.53      11.8        124.88      
H           111.11      7.8         130.08      
H           112.7       7.45        131.98      
C           109.68      11.43       123.88      
N           108.1       9.72        124.58      
C           108.49      10.76       123.79      
C           117.09      8.41        133.75      
C           116.08      7.59        134.16      
S           116.76      9.16        132.21      
H           114.11      6.92        133.41      
H           115.99      7.3         135.17      
C           115.02      7.47        133.23      
C           115.22      8.29        132.19      
C           123.87      13.53       140.71      
N           124.46      13.13       139.52      
C           122.64      13.16       141.07      
C           123.78      12.32       138.72      
C           122.49      11.83       139.01      
C           122.12      11.02       137.83      
C           123.24      11.18       136.84      
N           124.25      11.9        137.48      
C           120.93      10.32       137.54      
C           119.94      9.97        138.61      
N           118.86      9.36        138.07      
C           118.97      9.32        136.68      
C           120.46      9.83        134.89      
C           120.25      9.82        136.29      
C           121.92      12.32       140.18      
O           120.05      9.89        139.83      
O           123.26      10.72       135.73      
C           117.8       8.73        138.91      
C           125.39      12.5        136.91      
H           125.48      13.54       137.14      
H           126.32469   11.97381    137.10386   
H           125.19      12.54       135.86      
H           117.71      7.66        138.6       
H           116.78736   9.10883     138.77158   
H           118.03      8.68        139.95      
H           119.68      9.42        132.88      
H           121.29      10.34       134.47      
H           120.92      12.03       140.43      
H           122.1       13.46       141.93      
C           119.45      9.34        133.95      
N           118.08      8.83        135.84      
C           118.29      8.83        134.5       
C           126.47      15.39       143.1       
C           125.22      15.77       143.48      
S           126.41      14.13       141.87      
H           123.19      15.36       142.85      
H           125.02      16.38       144.35      
C           124.21      15.16       142.69      
C           124.69      14.36       141.66      
H           87.55       23.19       29.98       
H           127.4       15.95       143.41      
