392

C           74.44       28.74       17.58       
N           73.12       28.62       17.29       
C           75.36       29.41       16.81       
C           72.72       29.27       16.27       
C           73.53       30.08       15.33       
C           72.59       30.65       14.32       
C           71.26       30.07       14.78       
N           71.39       29.34       15.96       
C           72.72       31.51       13.3        
C           73.93       32.37       13.15       
N           73.74       33.13       11.99       
C           72.5        32.8        11.45       
C           70.69       31.3        11.51       
C           71.84       31.75       12.12       
C           74.93       30.04       15.67       
O           74.99       32.4        13.77       
O           70.17       30.43       14.38       
C           74.63       34.18       11.53       
C           70.21       28.92       16.8        
H           70.4        27.91       17.22       
H           70.10468    29.5379     17.69174    
H           69.34       28.91       16.16       
H           74.05       35.12       11.4        
H           75.17365    33.90465    10.62627    
H           75.34       34.47       12.32       
H           69.29       31.65       9.95        
H           70.13       30.49       11.94       
H           75.64       30.52       15.03       
H           76.43       29.39       17.07       
C           70.29       31.92       10.32       
N           71.98       33.51       10.44       
C           70.85       33.05       9.87        
C           75.8        27.35       20.94       
C           74.45       27.1        20.87       
S           76.28       28.26       19.55       
H           72.8        27.29       19.41       
H           73.78       26.69       21.63       
C           73.86       27.56       19.66       
C           74.74       28.13       18.84       
C           82.81       24.89       28.94       
N           81.54       25.23       29.16       
C           83.33       24.99       27.65       
C           80.81       25.68       28.2        
C           81.16       25.78       26.84       
C           79.96       26.31       26.15       
C           78.92       26.39       27.22       
N           79.51       26.03       28.4        
C           79.71       26.61       24.8        
C           80.82       26.9        23.78       
N           80.16       27.23       22.56       
C           78.79       27.05       22.72       
C           77.11       26.34       24.24       
C           78.49       26.67       24.03       
C           82.5        25.43       26.59       
O           82.04       26.94       23.92       
O           77.75       26.85       27.22       
C           80.79       27.82       21.4        
C           78.92       26.32       29.67       
H           78.49       27.28       29.57       
H           78.24792    25.5429     30.03404    
H           79.69       26.28       30.36       
H           80.33       28.76       21.23       
H           80.67394    27.31224    20.4425     
H           81.8        28.04       21.54       
H           75.13       26.28       23.28       
H           76.64       25.93       25.16       
H           82.82       25.29       25.57       
H           84.36       24.78       27.44       
C           76.17       26.62       23.2        
N           77.95       27.28       21.73       
C           76.67       27.07       22.01       
C           84.52       24.14       32.35       
C           85.43       24.19       31.4        
S           82.91       24.38       31.66       
H           85.6        24.29       29.21       
H           86.49       24.16       31.59       
C           84.92       24.27       30.12       
C           83.61       24.5        30.03       
C           84.68       24.69       43.58       
N           85.58       25.44       42.82       
C           83.67       23.96       42.96       
C           85.5        25.3        41.5        
C           84.54       24.58       40.72       
C           84.86       24.82       39.25       
C           86.06       25.78       39.33       
N           86.36       26.02       40.65       
C           84.28       24.44       38.05       
C           82.91       23.83       37.93       
N           82.64       23.54       36.63       
C           83.69       23.99       35.81       
C           85.82       25.06       35.82       
C           84.76       24.56       36.6        
C           83.63       23.88       41.53       
O           82.09       23.58       38.77       
O           86.55       26.41       38.44       
C           81.32       23.13       36.21       
C           87.13       27.2        40.96       
H           86.65       27.62       41.89       
H           88.15756    26.95396    41.22774    
H           87.09       27.98       40.21       
H           81.25       23.3        35.18       
H           81.16418    22.06053    36.35165    
H           80.6        23.73       36.82       
H           86.67       25.38       33.85       
H           86.63       25.66       36.29       
H           82.78       23.26       41.16       
H           82.99       23.32       43.61       
C           85.84       24.87       34.43       
N           83.62       23.88       34.46       
C           84.71       24.32       33.82       
C           84.68       26.2        47.18       
C           83.79       25.12       47.15       
S           85.42       26.41       45.62       
H           83.26       23.48       45.73       
H           83.13       24.8        47.95       
C           83.83       24.42       45.94       
C           84.67       25.01       45.03       
C           83.81       30.98       56.93       
N           85.03       30.86       56.45       
C           82.68       30.55       56.3        
C           85.16       30.49       55.19       
C           84.08       30.14       54.28       
C           84.67       29.87       53.0        
C           86.12       30.15       53.17       
N           86.28       30.53       54.46       
C           84.03       29.26       51.9        
C           82.53       29.14       51.68       
N           82.35       28.36       50.54       
C           83.49       27.9        49.98       
C           85.81       28.45       50.03       
C           84.58       28.57       50.71       
C           82.81       30.1        54.98       
O           81.62       29.61       52.29       
O           87.02       30.09       52.42       
C           81.23       27.49       50.42       
C           87.64       30.91       54.9        
H           88.45       30.31       54.48       
H           87.84292    31.95257    54.6551     
H           87.72       30.75       55.95       
H           80.58       27.44       51.28       
H           80.6382     27.72672    49.53578    
H           81.82       26.56       50.35       
H           86.92       27.71       48.26       
H           86.69       29.02       50.43       
H           81.93       29.74       54.47       
H           81.71       30.61       56.76       
C           85.93       27.77       48.75       
N           83.55       27.25       48.8        
C           84.73       27.16       48.23       
C           84.44       32.14       60.58       
C           83.04       31.97       60.47       
S           85.25       31.89       59.07       
H           81.59       31.54       58.86       
H           82.28       32.03       61.23       
C           82.65       31.73       59.13       
C           83.71       31.52       58.31       
C           90.07       34.54       69.77       
N           88.76       34.55       69.77       
C           90.87       34.3        68.65       
C           88.1        34.31       68.63       
C           88.74       34.05       67.35       
C           87.62       33.75       66.46       
C           86.39       33.68       67.35       
N           86.73       33.99       68.62       
C           87.58       33.43       65.07       
C           88.83       33.53       64.21       
N           88.45       33.14       62.96       
C           87.07       33.0        62.87       
C           85.05       33.12       64.1        
C           86.45       33.22       64.12       
C           90.18       34.02       67.42       
O           89.98       33.85       64.48       
O           85.3        33.13       67.08       
C           89.39       32.76       61.89       
C           85.95       33.43       69.73       
H           84.9        33.74       69.67       
H           86.11895    32.37408    69.94118    
H           86.32       34.05       70.55       
H           89.13       33.38       60.95       
H           89.33913    31.69178    61.67926    
H           90.43       32.98       62.15       
H           83.38       32.58       63.02       
H           84.44       33.34       64.96       
H           90.86       33.67       66.61       
H           91.97       34.36       68.67       
C           84.43       32.79       62.93       
N           86.46       32.76       61.7        
C           85.14       32.59       61.78       
C           91.95       34.9        73.15       
C           90.67       34.51       73.37       
S           92.27       35.04       71.44       
H           88.8        34.1        72.15       
H           90.29       34.19       74.37       
C           89.86       34.45       72.2        
C           90.59       34.69       71.12       
C           101.11      32.82       78.74       
N           100.01      32.13       79.05       
C           101.19      33.69       77.68       
C           98.94       32.37       78.31       
C           98.82       33.34       77.29       
C           97.45       33.36       76.8        
C           96.8        32.21       77.59       
N           97.77       31.71       78.51       
C           96.75       34.07       75.86       
C           97.48       34.91       74.76       
N           96.52       35.25       73.83       
C           95.31       34.97       74.28       
C           94.18       34.06       76.16       
C           95.39       34.35       75.55       
C           99.99       34.04       77.07       
O           98.67       35.28       74.52       
O           95.72       31.64       77.43       
C           96.71       36.06       72.58       
C           97.62       30.52       79.24       
H           96.54       30.38       79.34       
H           98.11137    29.66011    78.78476    
H           98.03       30.69       80.18       
H           97.65       36.63       72.58       
H           96.65334    35.51461    71.63796    
H           95.91       36.87       72.49       
H           92.02       34.07       75.79       
H           94.1        33.51       77.09       
H           100.0       34.87       76.33       
H           102.05      34.37       77.47       
C           93.0        34.33       75.36       
N           94.24       35.26       73.57       
C           93.04       34.85       74.1        
C           103.62      31.89       81.59       
C           104.34      32.69       80.74       
S           102.0       31.64       81.04       
H           103.95      33.7        78.87       
H           105.39      32.97       80.87       
C           103.54      33.07       79.62       
C           102.25      32.57       79.61       
C           105.38      27.69       91.63       
N           106.36      28.46       91.09       
C           104.14      27.43       91.01       
C           106.09      28.89       89.86       
C           104.88      28.78       89.1        
C           105.08      29.47       87.81       
C           106.45      29.97       87.93       
N           106.98      29.65       89.16       
C           104.3       29.61       86.71       
C           102.99      28.88       86.47       
N           102.56      29.04       85.17       
C           103.48      29.93       84.52       
C           105.31      31.38       84.95       
C           104.49      30.36       85.42       
C           103.87      28.11       89.8        
O           102.32      28.13       87.23       
O           107.16      30.58       87.16       
C           101.22      28.72       84.73       
C           108.04      30.35       89.8        
H           107.69      30.64       90.78       
H           109.02564   29.90577    89.66118    
H           108.16      31.31       89.23       
H           101.13      28.52       83.67       
H           100.51721   29.53036    84.92363    
H           100.99      27.78       85.27       
H           105.48      32.8        83.26       
H           106.0       31.86       85.67       
H           102.87      28.06       89.43       
H           103.3       26.92       91.55       
C           104.99      31.92       83.69       
N           103.25      30.31       83.27       
C           104.01      31.32       82.88       
C           105.39      26.21       95.17       
C           106.29      27.27       95.21       
S           104.69      25.99       93.61       
H           107.15      28.58       93.79       
H           106.89      27.58       96.08       
C           106.46      27.81       93.93       
C           105.7       27.24       92.95       
C           103.6       18.83       103.14      
N           103.57      20.14       103.51      
C           103.98      18.52       101.82      
C           103.73      21.01       102.52      
C           104.0       20.82       101.16      
C           103.88      22.15       100.46      
C           103.82      23.14       101.65      
N           103.55      22.39       102.78      
C           103.88      22.52       99.1        
C           103.54      21.49       98.0        
N           103.67      22.06       96.75       
C           104.0       23.45       96.99       
C           104.63      25.07       98.66       
C           104.22      23.76       98.4        
C           104.17      19.49       100.8       
O           103.19      20.3        98.12       
O           103.62      24.32       101.55      
C           103.42      21.58       95.41       
C           102.73      22.94       103.85      
H           102.2       22.13       104.26      
H           103.28522   23.45196    104.63596   
H           101.95      23.55       103.32      
H           104.15      22.02       94.71       
H           102.37949   21.68268    95.10195    
H           103.65      20.48       95.44       
H           105.33      26.93       97.8        
H           104.74      25.43       99.67       
H           104.43      19.19       99.78       
H           104.09      17.47       101.56      
C           104.95      25.93       97.6        
N           104.3       24.25       96.0        
C           104.86      25.48       96.28       
C           104.12      17.08       106.51      
C           104.1       16.1        105.52      
S           103.77      18.63       105.82      
H           104.0       16.01       103.3       
H           104.3       15.06       105.75      
C           104.01      16.62       104.17      
C           103.77      17.95       104.22      
C           109.37      16.07       115.97      
N           108.52      17.04       115.9       
C           109.5       15.06       115.01      
C           107.7       17.06       114.87      
C           107.61      16.02       113.88      
C           106.59      16.48       112.93      
C           106.13      17.83       113.51      
N           106.87      18.12       114.65      
C           106.19      16.02       111.65      
C           106.29      14.58       111.29      
N           105.78      14.46       110.0       
C           105.38      15.69       109.57      
C           104.91      17.86       110.09      
C           105.47      16.65       110.51      
C           108.65      14.96       113.89      
O           106.72      13.67       111.96      
O           105.25      18.6        113.16      
C           105.89      13.34       109.12      
C           106.6       19.27       115.54      
H           107.53      19.64       115.98      
H           105.95946   19.01524    116.38434   
H           106.14      20.03       114.96      
H           105.0       13.38       108.46      
H           106.7898    13.43998    108.51299   
H           105.79      12.45       109.73      
H           104.13      19.05       108.56      
H           104.97      18.68       110.75      
H           108.84      14.31       113.0       
H           110.34      14.42       115.08      
C           104.51      18.08       108.76      
N           104.95      15.83       108.3       
C           104.53      17.0        107.88      
C           111.66      17.39       118.82      
C           112.2       16.25       118.36      
S           110.18      17.82       118.02      
H           111.88      14.67       116.99      
H           113.09      15.81       118.86      
C           111.47      15.65       117.36      
C           110.36      16.38       117.02      
C           114.69      23.95       127.31      
N           113.94      24.43       126.3       
C           115.18      22.66       127.18      
C           113.66      23.64       125.31      
C           114.2       22.36       124.99      
C           113.54      21.86       123.79      
C           112.64      23.02       123.41      
N           112.71      24.05       124.39      
C           113.69      20.66       123.06      
C           114.91      19.74       123.13      
N           114.8       18.78       122.17      
C           113.6       18.92       121.45      
C           111.76      20.29       121.28      
C           112.98      20.06       121.92      
C           114.99      21.83       126.02      
O           115.87      19.86       123.87      
O           112.05      23.23       122.32      
C           115.67      17.59       122.1       
C           112.12      25.42       124.31      
H           112.39      25.82       123.33      
H           111.08342   25.3908     124.64579   
H           112.63      26.02       125.02      
H           115.91      17.44       120.99      
H           115.17998   16.72197    122.54102   
H           116.57      17.76       122.63      
H           110.34      19.48       119.99      
H           111.11      21.1        121.58      
H           115.27      20.83       126.11      
H           115.76      22.14       127.93      
C           111.36      19.35       120.29      
N           113.3       18.09       120.46      
C           112.16      18.29       119.79      
C           114.73      26.96       129.9       
C           115.44      25.92       130.41      
S           114.28      26.56       128.26      
H           116.05      23.92       129.87      
H           115.96      25.95       131.4       
C           115.51      24.8        129.53      
C           114.85      24.92       128.36      
H           70.33       33.61       9.09        
H           114.32      27.82       130.4       
