392

C           76.33       21.1        41.65       
N           75.5        20.16       41.22       
C           76.29       22.41       41.06       
C           74.7        20.44       40.17       
C           74.47       21.63       39.48       
C           73.62       21.33       38.34       
C           73.17       19.87       38.56       
N           73.8        19.44       39.69       
C           73.24       22.07       37.25       
C           73.75       23.5        36.98       
N           73.23       23.98       35.77       
C           72.39       22.97       35.28       
C           71.47       20.85       35.59       
C           72.34       21.83       36.07       
C           75.35       22.65       40.0        
O           74.42       24.26       37.64       
O           72.42       19.11       37.88       
C           73.43       25.33       35.29       
C           73.76       18.1        40.19       
H           74.73       17.85       40.64       
H           72.96831    17.92328    40.91807    
H           73.52       17.37       39.43       
H           72.5        25.75       34.94       
H           74.28267    25.41598    34.61646    
H           73.7        25.87       36.15       
H           70.01       20.3        34.09       
H           71.2        19.98       36.17       
H           75.3        23.67       39.59       
H           76.91       23.22       41.29       
C           70.79       21.0        34.36       
N           71.71       23.14       34.14       
C           70.95       22.12       33.69       
C           79.02       20.65       44.42       
C           78.47       19.46       44.32       
S           78.42       21.85       43.31       
H           76.91       18.61       42.93       
H           78.85       18.61       44.8        
C           77.49       19.45       43.23       
C           77.37       20.66       42.58       
C           85.35       25.65       51.96       
N           85.04       24.37       52.23       
C           85.24       26.27       50.76       
C           84.42       23.69       51.24       
C           84.16       24.24       49.93       
C           83.36       23.21       49.22       
C           83.16       22.08       50.21       
N           83.83       22.47       51.36       
C           82.78       23.18       47.85       
C           83.23       24.05       46.71       
N           82.51       23.67       45.61       
C           81.58       22.62       45.88       
C           80.8        21.33       47.69       
C           81.7        22.32       47.3        
C           84.68       25.53       49.69       
O           84.15       24.84       46.64       
O           82.44       21.11       50.17       
C           82.72       24.3        44.33       
C           83.42       21.88       52.65       
H           82.45       21.38       52.58       
H           84.10741    21.15715    53.08938    
H           83.21       22.71       53.38       
H           81.77       24.48       43.85       
H           83.45133    23.74976    43.73797    
H           83.14       25.26       44.43       
H           79.3        20.01       47.07       
H           80.72       20.93       48.7        
H           84.66       26.0        48.74       
H           85.57       27.29       50.7        
C           80.02       20.73       46.69       
N           80.69       22.24       44.99       
C           79.96       21.16       45.35       
C           86.65       26.41       55.51       
C           86.69       27.59       54.8        
S           86.06       25.11       54.57       
H           86.15       28.31       52.8        
H           87.04       28.48       55.25       
C           86.2        27.47       53.45       
C           85.79       26.24       53.21       
C           85.76       24.67       66.43       
N           86.14       25.87       65.97       
C           85.72       23.54       65.66       
C           86.3        25.95       64.68       
C           86.28       24.86       63.7        
C           86.34       25.54       62.37       
C           86.55       27.0        62.74       
N           86.57       27.08       64.09       
C           86.32       25.15       61.0        
C           85.92       23.75       60.58       
N           86.0        23.63       59.25       
C           86.19       24.86       58.68       
C           87.06       26.96       59.21       
C           86.58       25.76       59.7        
C           86.0        23.62       64.24       
O           85.49       22.79       61.2        
O           86.54       28.02       62.03       
C           85.7        22.44       58.43       
C           86.82       28.31       64.78       
H           86.07       28.36       65.67       
H           87.81381    28.39642    65.21929    
H           86.69       29.21       64.16       
H           85.45       22.71       57.47       
H           86.51133    21.71333    58.38767    
H           84.86       22.06       58.99       
H           87.52       28.14       57.36       
H           87.33       27.78       59.83       
H           86.05       22.74       63.62       
H           85.57       22.58       66.14       
C           87.26       27.2        57.78       
N           86.29       25.03       57.36       
C           86.7        26.22       56.91       
C           86.05       25.11       70.28       
C           85.76       23.81       70.05       
S           86.1        25.95       68.77       
H           85.31       22.45       68.35       
H           85.57       23.09       70.88       
C           85.58       23.41       68.73       
C           85.82       24.47       67.87       
C           87.9        29.58       80.23       
N           88.33       30.31       79.14       
C           87.2        28.35       80.17       
C           88.15       29.67       78.02       
C           87.43       28.47       77.78       
C           87.28       28.23       76.37       
C           88.08       29.45       75.77       
N           88.45       30.24       76.81       
C           86.76       27.28       75.52       
C           86.25       25.93       76.08       
N           85.89       25.08       75.08       
C           86.1        25.79       73.86       
C           86.85       27.77       72.85       
C           86.53       27.09       74.09       
C           86.97       27.78       78.95       
O           86.23       25.52       77.21       
O           88.31       29.77       74.59       
C           85.92       23.61       75.25       
C           89.16       31.5        76.63       
H           90.01       31.28       76.04       
H           88.54301    32.34135    76.31449    
H           89.41       31.73       77.61       
H           86.6        23.38       76.0        
H           84.94785    23.18111    75.49304    
H           86.28       23.17       74.31       
H           87.01       27.78       70.82       
H           87.3        28.76       72.78       
H           86.45       26.84       78.94       
H           86.85       27.85       81.03       
C           86.66       27.15       71.63       
N           85.92       25.23       72.67       
C           86.21       25.84       71.49       
C           89.26       32.03       82.86       
C           88.86       30.93       83.56       
S           88.75       31.9        81.19       
H           88.14       28.86       83.06       
H           89.12       30.82       84.61       
C           88.33       29.86       82.73       
C           88.16       30.3        81.46       
C           90.66       42.58       85.85       
N           91.36       41.7        86.52       
C           90.04       42.27       84.7        
C           91.29       40.42       86.08       
C           90.48       39.92       85.01       
C           90.71       38.44       84.84       
C           91.57       38.13       86.06       
N           91.88       39.35       86.69       
C           90.39       37.43       83.9        
C           90.05       37.75       82.45       
N           89.84       36.62       81.8        
C           89.98       35.51       82.64       
C           90.48       34.89       84.87       
C           90.24       35.93       83.94       
C           89.86       40.9        84.24       
O           90.03       38.84       81.87       
O           92.11       37.09       86.34       
C           89.43       36.52       80.37       
C           92.9        39.48       87.73       
H           93.05       38.54       88.24       
H           93.88501    39.79144    87.38235    
H           92.37       40.12       88.49       
H           88.64       35.71       80.35       
H           90.23893    36.22197    79.70299    
H           88.98       37.5        80.06       
H           90.22       32.79       85.34       
H           90.71       35.2        85.87       
H           89.63       40.72       83.18       
H           89.6        43.06       84.05       
C           90.25       33.53       84.54       
N           89.74       34.24       82.28       
C           89.73       33.33       83.28       
C           91.61       46.04       87.25       
C           90.65       46.26       86.31       
S           91.99       44.36       87.42       
H           89.59       44.94       84.9        
H           90.34       47.22       85.96       
C           90.23       45.06       85.77       
C           90.87       43.95       86.2        
C           96.94       54.36       92.46       
N           96.96       53.09       92.84       
C           96.21       54.69       91.32       
C           96.35       52.17       92.17       
C           95.61       52.32       90.95       
C           95.15       50.96       90.56       
C           95.75       50.08       91.65       
N           96.39       50.84       92.54       
C           94.37       50.39       89.61       
C           93.86       51.31       88.53       
N           93.15       50.54       87.62       
C           93.06       49.24       88.02       
C           93.83       47.74       89.63       
C           93.83       49.07       89.2        
C           95.46       53.73       90.6        
O           94.16       52.48       88.2        
O           95.51       48.93       91.96       
C           92.27       51.2        86.66       
C           97.27       50.3        93.56       
H           96.9        49.47       94.15       
H           98.2419     50.09321    93.11196    
H           97.36       51.1        94.31       
H           92.29       50.54       85.82       
H           91.23495    51.28625    86.99064    
H           92.63       52.19       86.39       
H           93.01       45.72       89.33       
H           94.41       47.35       90.47       
H           94.91       53.94       89.76       
H           96.19       55.65       90.93       
C           93.11       46.75       88.97       
N           92.37       48.33       87.35       
C           92.41       47.08       87.91       
C           98.86       56.3        95.17       
C           98.65       57.17       94.16       
S           98.32       54.7        94.77       
H           97.53       57.13       92.16       
H           98.83       58.24       94.28       
C           97.99       56.58       93.05       
C           97.64       55.3        93.29       
C           102.94      56.83       105.41      
N           102.66      57.96       104.79      
C           102.48      55.62       104.92      
C           101.98      57.86       103.63      
C           101.55      56.69       102.94      
C           100.97      57.08       101.67      
C           100.95      58.61       101.72      
N           101.58      58.95       102.9       
C           100.59      56.32       100.57      
C           100.6       54.84       100.48      
N           100.22      54.4        99.22       
C           100.02      55.47       98.41       
C           100.02      57.84       98.38       
C           100.22      56.68       99.13       
C           101.95      55.52       103.64      
O           100.86      54.02       101.3       
O           100.63      59.38       100.86      
C           99.98       52.97       98.93       
C           101.75      60.33       103.38      
H           101.31      60.47       104.37      
H           102.75963   60.70683    103.21647   
H           101.19      60.94       102.7       
H           100.12      52.77       97.84       
H           99.01204    52.62631    99.29474    
H           100.83      52.48       99.42       
H           99.61       58.66       96.51       
H           100.24      58.78       98.85       
H           101.98      54.51       103.2       
H           102.78      54.7        105.4       
C           99.65       57.73       97.02       
N           99.47       55.39       97.21       
C           99.34       56.48       96.49       
C           104.93      56.51       108.77      
C           104.41      57.76       108.64      
S           104.5       55.64       107.31      
H           103.13      58.98       107.21      
H           104.67      58.52       109.38      
C           103.71      58.09       107.42      
C           103.62      56.97       106.7       
C           110.55      51.55       116.87      
N           110.38      52.87       116.85      
C           110.15      50.76       115.71      
C           109.8       53.39       115.74      
C           109.38      52.8        114.55      
C           108.61      53.79       113.73      
C           108.64      55.06       114.55      
N           109.38      54.72       115.67      
C           107.92      53.77       112.51      
C           108.06      52.55       111.66      
N           107.37      52.83       110.46      
C           106.73      54.06       110.63      
C           106.2       55.86       112.1       
C           106.92      54.65       111.9       
C           109.62      51.43       114.61      
O           108.62      51.48       111.79      
O           108.11      56.19       114.38      
C           106.9       51.9        109.4       
C           109.88      55.74       116.55      
H           110.31      56.54       115.97      
H           109.19214   56.09479    117.31751   
H           110.85      55.33       116.92      
H           106.41      52.44       108.58      
H           106.14657   51.17527    109.70855   
H           107.78      51.42       109.05      
H           105.05      57.46       111.16      
H           106.41      56.34       112.98      
H           109.22      50.77       113.8       
H           110.14      49.66       115.68      
C           105.55      56.46       111.04      
N           106.09      54.63       109.64      
C           105.56      55.87       109.85      
C           111.57      50.87       120.58      
C           111.95      49.74       119.88      
S           110.79      52.04       119.55      
H           111.65      49.09       117.69      
H           112.47      48.87       120.35      
C           111.51      49.76       118.48      
C           110.89      50.93       118.19      
C           114.61      55.03       130.37      
N           113.31      55.14       129.97      
C           115.5       54.19       129.7       
C           112.9       54.43       128.94      
C           113.73      53.59       128.13      
C           112.84      53.11       127.02      
C           111.53      53.77       127.29      
N           111.62      54.55       128.44      
C           113.11      52.32       125.9       
C           114.23      51.28       125.85      
N           114.1       50.5        124.67      
C           113.11      51.01       123.83      
C           111.47      52.71       123.81      
C           112.44      52.12       124.51      
C           115.09      53.51       128.52      
O           114.93      51.01       126.82      
O           110.54      53.67       126.64      
C           115.16      49.7        124.11      
C           110.75      55.74       128.63      
H           111.34      56.59       128.53      
H           110.23724   55.67407    129.5896    
H           109.97      55.83       127.87      
H           116.07      49.95       124.66      
H           114.91552   48.63802    124.13292   
H           115.24      50.09       123.14      
H           110.22      52.71       122.2       
H           110.89      53.45       124.3       
H           115.84      52.96       128.03      
H           116.57      54.12       129.91      
C           111.13      52.2        122.57      
N           112.87      50.53       122.62      
C           111.81      51.16       122.0       
C           114.91      57.69       133.13      
C           116.07      57.08       133.02      
S           113.8       56.94       132.03      
H           117.03      55.43       131.9       
H           116.93      57.33       133.65      
C           116.18      56.05       132.02      
C           115.02      55.9        131.45      
C           111.43      66.76       138.8       
N           110.52      65.93       138.22      
C           112.76      66.54       138.85      
C           111.04      64.89       137.6       
C           112.41      64.56       137.45      
C           112.5       63.29       136.63      
C           111.0       63.08       136.28      
N           110.3       64.13       136.8       
C           113.44      62.39       136.14      
C           114.93      62.48       136.49      
N           115.64      61.47       135.92      
C           114.81      60.69       135.17      
C           112.62      60.45       134.43      
C           113.47      61.16       135.26      
C           113.22      65.45       138.14      
O           115.52      63.39       137.13      
O           110.44      62.17       135.69      
C           116.92      61.03       136.33      
C           108.91      64.37       136.37      
H           108.78      64.24       135.31      
H           108.15694   63.85362    136.96527   
H           108.7       65.43       136.56      
H           117.43      60.65       135.49      
H           116.83499   60.33572    137.16597   
H           117.44      61.84       136.79      
H           112.37      58.79       133.11      
H           111.62      60.64       134.38      
H           114.31      65.3        138.17      
H           113.45      67.19       139.43      
C           113.1       59.32       133.72      
N           115.26      59.6        134.55      
C           114.37      58.87       133.84      
C           108.87      69.12       140.63      
C           110.08      69.63       140.98      
S           109.02      67.71       139.55      
H           112.07      69.33       140.35      
H           110.26      70.46       141.7       
C           111.08      68.96       140.22      
C           110.71      67.86       139.52      
H           70.36       22.38       32.81       
H           107.97      69.16       141.33      
