392

C           72.87       23.63       5.97        
N           72.09       22.58       5.63        
C           73.08       24.68       5.1         
C           71.41       22.71       4.48        
C           71.6        23.68       3.53        
C           70.77       23.31       2.31        
C           69.89       22.16       2.85        
N           70.45       21.76       4.05        
C           70.69       23.74       1.0         
C           71.86       24.58       0.37        
N           71.53       24.64       -0.97       
C           70.3        24.05       -1.31       
C           68.53       22.88       -0.25       
C           69.74       23.51       -0.07       
C           72.47       24.69       3.88        
O           72.81       25.13       0.83        
O           69.17       21.41       2.24        
C           72.46       25.3        -1.94       
C           70.24       20.45       4.59        
H           71.17       20.12       4.98        
H           69.51628    20.45       5.40506     
H           70.01       19.72       3.84        
H           71.93       25.73       -2.69       
H           73.09219    24.58879    -2.47161    
H           73.0        25.98       -1.44       
H           67.09       22.21       -1.64       
H           68.1        22.28       0.56        
H           72.6        25.58       3.27        
H           73.63       25.55       5.47        
C           68.01       22.78       -1.58       
N           69.79       23.95       -2.44       
C           68.59       23.34       -2.68       
C           74.56       23.99       9.48        
C           74.12       22.65       9.33        
S           74.17       24.84       8.03        
H           73.35       21.4        7.61        
H           74.38       21.9        10.06       
C           73.59       22.31       8.05        
C           73.45       23.46       7.28        
C           79.38       30.6        16.76       
N           79.8        29.3        16.59       
C           78.33       31.06       16.04       
C           79.13       28.51       15.81       
C           77.99       28.87       15.05       
C           77.56       27.71       14.27       
C           78.46       26.63       14.78       
N           79.34       27.17       15.69       
C           76.64       27.58       13.22       
C           75.81       28.72       12.55       
N           75.16       28.15       11.46       
C           75.33       26.76       11.41       
C           76.42       24.99       12.53       
C           76.15       26.35       12.54       
C           77.62       30.2        15.19       
O           75.81       29.92       12.77       
O           78.62       25.51       14.42       
C           74.42       29.03       10.59       
C           80.42       26.44       16.37       
H           80.03       25.47       16.72       
H           81.3064     26.42559    15.73582    
H           80.51       26.98       17.31       
H           73.4        28.63       10.39       
H           75.02329    29.18615    9.69571     
H           74.17       29.97       11.09       
H           76.12       23.11       11.63       
H           76.94       24.51       13.38       
H           76.74       30.58       14.76       
H           78.08       32.08       16.1        
C           75.85       24.13       11.6        
N           74.83       26.01       10.45       
C           75.05       24.7        10.65       
C           81.85       32.4        19.21       
C           81.15       33.39       18.58       
S           81.43       30.8        18.59       
H           79.62       33.51       17.06       
H           81.14       34.43       18.89       
C           80.3        32.85       17.6        
C           80.25       31.48       17.5        
C           90.02       32.3        26.81       
N           89.28       33.4        26.54       
C           89.58       31.1        26.28       
C           88.38       33.32       25.64       
C           87.85       32.19       25.05       
C           86.76       32.57       24.09       
C           86.72       34.13       24.35       
N           87.69       34.49       25.21       
C           85.84       31.96       23.27       
C           86.0        30.54       22.81       
N           85.01       30.26       21.92       
C           84.27       31.4        21.69       
C           83.92       33.63       22.21       
C           84.66       32.42       22.54       
C           88.51       31.01       25.45       
O           86.82       29.77       23.23       
O           86.15       35.07       23.74       
C           84.93       29.07       21.16       
C           87.97       35.84       25.69       
H           88.33       35.69       26.75       
H           88.85754    36.29786    25.25327    
H           87.14       36.48       25.63       
H           83.94       29.05       20.61       
H           85.72434    28.92495    20.42782    
H           85.02       28.17       21.88       
H           82.42       34.55       20.82       
H           84.02       34.5        22.82       
H           88.19       30.07       25.06       
H           90.14       30.15       26.5        
C           82.97       33.61       21.12       
N           83.33       31.33       20.78       
C           82.72       32.46       20.35       
C           92.7        33.46       29.47       
C           92.94       32.11       29.21       
S           91.28       33.94       28.57       
H           92.21       30.63       27.81       
H           93.7        31.53       29.6        
C           92.12       31.61       28.15       
C           91.17       32.48       27.66       
C           96.94       39.67       37.52       
N           96.08       40.24       36.65       
C           97.53       38.43       37.37       
C           95.86       39.48       35.52       
C           96.35       38.17       35.29       
C           95.7        37.73       33.99       
C           95.06       39.03       33.48       
N           95.07       39.96       34.48       
C           95.56       36.52       33.35       
C           96.29       35.19       33.69       
N           95.79       34.15       32.95       
C           94.83       34.62       32.04       
C           93.71       36.48       31.4        
C           94.7        36.02       32.22       
C           97.21       37.64       36.28       
O           97.14       34.98       34.58       
O           94.54       39.33       32.39       
C           96.09       32.78       33.25       
C           94.64       41.31       34.27       
H           94.9        41.7        33.3        
H           93.55093    41.32424    34.31271    
H           95.09       41.98       34.99       
H           97.03       32.76       33.71       
H           95.32206    32.31923    33.87134    
H           96.19       32.23       32.34       
H           92.44       36.26       29.74       
H           93.49       37.54       31.33       
H           97.67       36.65       36.21       
H           98.09       37.93       38.18       
C           93.03       35.7        30.5        
N           94.27       33.82       31.14       
C           93.26       34.38       30.45       
C           97.6        42.41       40.09       
C           98.36       41.34       40.49       
S           96.65       42.12       38.67       
H           98.72       39.22       39.74       
H           99.0        41.3        41.41       
C           98.19       40.19       39.64       
C           97.29       40.48       38.68       
C           96.65       52.94       43.24       
N           97.19       52.13       44.13       
C           96.05       52.46       42.12       
C           97.15       50.83       43.8        
C           96.64       50.2        42.6        
C           97.04       48.77       42.6        
C           97.8        48.63       43.94       
N           97.83       49.89       44.54       
C           96.83       47.75       41.66       
C           95.84       47.91       40.52       
N           95.66       46.71       39.88       
C           96.51       45.73       40.41       
C           98.16       45.55       42.16       
C           97.19       46.31       41.51       
C           96.08       51.13       41.68       
O           95.16       48.86       40.15       
O           98.35       47.55       44.37       
C           94.81       46.5        38.72       
C           98.02       49.99       45.96       
H           97.23       49.4        46.54       
H           99.05849    49.80632    46.23552    
H           97.85       51.01       46.26       
H           94.35       45.58       38.76       
H           95.42514    46.57411    37.82322    
H           94.02       47.29       38.68       
H           99.05       43.61       42.1        
H           98.84       45.82       42.99       
H           95.73       50.97       40.67       
H           95.43       53.12       41.61       
C           98.21       44.25       41.71       
N           96.58       44.55       39.98       
C           97.46       43.8        40.68       
C           97.17       56.57       44.68       
C           96.25       56.73       43.68       
S           97.76       54.96       44.82       
H           95.54       55.28       42.21       
H           95.89       57.68       43.26       
C           96.11       55.43       43.05       
C           96.65       54.39       43.65       
C           100.46      64.16       52.14       
N           100.8       62.86       52.35       
C           99.51       64.55       51.17       
C           100.31      62.1        51.4        
C           99.53       62.38       50.27       
C           99.47       61.14       49.4        
C           100.27      60.14       50.21       
N           100.67      60.77       51.37       
C           98.89       60.81       48.15       
C           98.41       61.84       47.19       
N           97.94       61.19       46.03       
C           98.02       59.8        46.17       
C           98.63       58.17       47.72       
C           98.55       59.55       47.46       
C           99.11       63.71       50.17       
O           98.63       63.02       47.22       
O           100.55      58.99       49.99       
C           97.43       61.92       44.8        
C           101.52      60.13       52.37       
H           102.12      60.98       52.7        
H           100.87933   59.73848    53.16016    
H           102.1       59.47       51.81       
H           97.21       61.21       44.0        
H           96.4895     62.45536    44.93022    
H           98.16       62.66       44.58       
H           98.15       56.22       47.21       
H           99.09       57.79       48.64       
H           98.52       64.05       49.35       
H           99.17       65.58       50.97       
C           98.17       57.24       46.83       
N           97.61       58.91       45.27       
C           97.72       57.57       45.55       
C           101.38      66.08       55.32       
C           101.16      67.03       54.34       
S           101.11      64.42       54.74       
H           100.51      67.06       52.25       
H           101.39      68.07       54.47       
C           100.78      66.48       53.12       
C           100.88      65.08       53.15       
C           105.7       65.72       65.57       
N           105.28      66.92       65.05       
C           105.47      64.56       64.81       
C           104.68      66.89       63.85       
C           104.41      65.8        63.01       
C           103.7       66.25       61.79       
C           103.48      67.75       62.1        
N           104.16      68.11       63.27       
C           103.12      65.59       60.67       
C           102.86      64.08       60.54       
N           102.31      63.82       59.34       
C           102.19      65.0        58.66       
C           102.68      67.31       58.66       
C           102.72      66.11       59.38       
C           104.9       64.6        63.5        
O           102.98      63.26       61.42       
O           102.85      68.57       61.52       
C           101.45      62.67       59.05       
C           103.99      69.39       63.94       
H           103.9       69.15       65.0        
H           104.87968   69.99318    63.75905    
H           103.07      69.78       63.5        
H           101.26      62.53       57.98       
H           100.53023   62.76269    59.62753    
H           101.98      61.79       59.4        
H           102.39      68.27       56.82       
H           103.03      68.21       59.18       
H           104.91      63.71       62.89       
H           105.92      63.6        65.13       
C           102.22      67.36       57.35       
N           101.71      65.04       57.43       
C           101.66      66.19       56.76       
C           106.4       65.05       69.29       
C           106.49      66.4        69.18       
S           106.12      64.31       67.79       
H           106.19      67.82       67.62       
H           106.67      67.03       70.06       
C           106.38      66.81       67.83       
C           106.1       65.77       66.94       
C           108.75      58.03       77.24       
N           108.52      59.37       77.55       
C           108.32      57.41       76.04       
C           108.06      60.1        76.61       
C           107.59      59.65       75.3        
C           107.16      60.85       74.57       
C           107.19      61.88       75.66       
N           107.73      61.41       76.84       
C           106.78      61.16       73.31       
C           106.37      60.05       72.3        
N           105.89      60.79       71.15       
C           106.16      62.11       71.31       
C           107.07      63.86       72.72       
C           106.75      62.51       72.57       
C           107.76      58.26       75.04       
O           106.21      58.86       72.51       
O           106.79      63.05       75.65       
C           105.68      60.14       69.85       
C           108.04      62.18       77.97       
H           108.27      63.18       77.66       
H           107.2697    62.21703    78.7403     
H           108.96      61.9        78.48       
H           106.24      60.61       69.07       
H           104.62224   59.95033    69.66763    
H           106.23      59.2        70.01       
H           107.12      65.79       71.82       
H           107.74      64.22       73.56       
H           107.44      57.81       74.13       
H           108.49      56.36       75.74       
C           106.82      64.74       71.71       
N           106.06      62.94       70.28       
C           106.43      64.25       70.49       
C           110.45      57.06       80.62       
C           110.44      55.95       79.92       
S           109.6       58.4        79.78       
H           109.71      55.26       77.93       
H           110.87      55.07       80.3        
C           109.8       56.08       78.61       
C           109.37      57.39       78.39       
C           116.36      60.57       89.2        
N           115.1       60.99       89.08       
C           116.78      59.4        88.5        
C           114.38      60.32       88.2        
C           114.8       59.28       87.27       
C           113.68      58.97       86.35       
C           112.61      60.01       86.79       
N           113.1       60.74       87.9        
C           113.55      58.06       85.27       
C           114.34      56.74       84.99       
N           113.86      56.1        83.85       
C           112.81      56.79       83.25       
C           111.47      58.73       83.75       
C           112.57      57.99       84.14       
C           116.04      58.82       87.53       
O           115.33      56.26       85.63       
O           111.57      60.29       86.34       
C           114.52      54.91       83.35       
C           112.21      61.47       88.81       
H           112.69      62.46       89.07       
H           111.92083   60.9192     89.70504    
H           111.33      61.71       88.19       
H           115.46      54.75       83.81       
H           113.9067    54.03187    83.55211    
H           114.68      55.21       82.34       
H           110.03      59.09       82.24       
H           111.1       59.56       84.33       
H           116.41      57.89       87.11       
H           117.73      58.97       88.7        
C           110.9       58.45       82.51       
N           112.17      56.43       82.19       
C           111.2       57.31       81.76       
C           117.63      62.3        92.47       
C           118.69      61.65       91.81       
S           116.12      61.94       91.54       
H           119.04      60.12       90.17       
H           119.67      61.67       92.22       
C           118.37      60.77       90.74       
C           117.02      60.95       90.43       
C           119.83      70.52       99.69       
N           118.58      70.12       99.55       
C           120.74      69.86       98.97       
C           118.36      69.08       98.73       
C           119.25      68.38       97.88       
C           118.5       67.48       96.99       
C           117.1       67.51       97.6        
N           117.13      68.53       98.56       
C           118.9       66.62       95.95       
C           120.24      66.71       95.22       
N           120.33      65.62       94.32       
C           119.1       64.93       94.33       
C           116.94      64.8        95.36       
C           118.16      65.45       95.31       
C           120.58      68.76       98.14       
O           121.16      67.51       95.44       
O           116.03      66.99       97.28       
C           121.41      65.28       93.45       
C           115.92      68.85       99.34       
H           115.14      68.92       98.52       
H           115.88477   68.20881    100.22076   
H           116.05      69.81       99.62       
H           121.03      64.81       92.55       
H           122.18245   64.68803    93.9409     
H           121.85      66.2        93.2        
H           115.76      63.15       94.4        
H           116.18      65.0        96.03       
H           121.45      68.31       97.65       
H           121.77      70.15       99.05       
C           116.68      63.74       94.39       
N           118.92      63.93       93.42       
C           117.63      63.35       93.47       
C           120.22      72.83       102.86      
C           121.47      72.71       102.27      
S           119.0       72.09       101.84      
H           122.32      71.5        100.64      
H           122.37      73.03       102.79      
C           121.44      71.95       101.1       
C           120.19      71.57       100.68      
H           68.47       22.79       -3.59       
H           120.08      73.19       103.85      
