392

C           71.41       25.88       3.31        
N           70.96       24.88       2.56        
C           71.71       27.11       2.7         
C           70.85       25.14       1.24        
C           71.2        26.26       0.45        
C           71.03       25.98       -0.99       
C           70.6        24.54       -0.9        
N           70.53       24.08       0.4         
C           71.17       26.67       -2.19       
C           71.66       28.12       -2.3        
N           72.01       28.37       -3.66       
C           71.53       27.29       -4.4        
C           70.3        25.28       -4.36       
C           71.0        26.27       -3.65       
C           71.72       27.29       1.25        
O           72.05       28.79       -1.41       
O           70.3        23.69       -1.72       
C           72.88       29.51       -4.06       
C           69.85       22.9        0.86        
H           70.19       22.47       1.84        
H           68.77285    23.05191    0.92905     
H           70.05       22.13       0.13        
H           72.33       30.09       -4.75       
H           73.75145    29.21719    -4.64561    
H           73.13       30.07       -3.17       
H           69.66       24.58       -6.26       
H           69.72       24.51       -3.85       
H           72.04       28.23       0.79        
H           71.85       27.93       3.3         
C           70.25       25.33       -5.71       
N           71.66       27.2        -5.7        
C           71.04       26.2        -6.4        
C           71.9        26.04       7.16        
C           71.27       24.88       6.9         
S           72.23       26.91       5.7         
H           70.24       23.87       5.08        
H           71.27       24.17       7.69        
C           70.85       24.72       5.53        
C           71.39       25.74       4.78        
C           78.09       30.34       15.33       
N           77.95       29.0        15.29       
C           77.63       31.07       14.31       
C           77.27       28.49       14.27       
C           76.81       29.13       13.11       
C           76.03       28.11       12.33       
C           76.15       26.86       13.21       
N           76.94       27.1        14.3        
C           75.4        28.13       11.1        
C           75.66       29.3        10.12       
N           75.02       29.01       8.99        
C           74.23       27.92       9.14        
C           73.76       26.09       10.57       
C           74.42       27.28       10.4        
C           77.08       30.5        13.13       
O           76.37       30.26       10.27       
O           75.65       25.79       13.06       
C           75.47       29.59       7.74        
C           76.61       26.49       15.52       
H           75.66       25.94       15.46       
H           77.39405    25.8718     15.95726    
H           76.52       27.27       16.24       
H           74.7        29.76       7.06        
H           76.2035     28.92441    7.28496     
H           76.02       30.51       7.96        
H           72.47       24.65       9.49        
H           73.95       25.58       11.5        
H           76.81       31.15       12.29       
H           77.76       32.21       14.33       
C           72.98       25.63       9.45        
N           73.43       27.54       8.15        
C           72.7        26.44       8.33        
C           80.49       31.09       18.25       
C           80.09       32.3        17.71       
S           79.74       29.75       17.5        
H           78.79       32.94       16.02       
H           80.52       33.24       18.01       
C           79.25       32.16       16.59       
C           78.97       30.84       16.38       
C           85.92       28.28       27.63       
N           85.49       29.56       27.43       
C           85.72       27.29       26.66       
C           84.84       29.83       26.33       
C           84.49       28.93       25.24       
C           83.79       29.7        24.2        
C           83.65       31.06       24.86       
N           84.27       31.06       26.06       
C           83.23       29.45       22.93       
C           83.31       28.02       22.33       
N           82.79       28.08       21.11       
C           82.39       29.39       20.83       
C           82.26       31.61       21.62       
C           82.55       30.29       21.87       
C           84.99       27.57       25.52       
O           83.79       27.0        22.84       
O           83.14       32.08       24.51       
C           82.57       26.89       20.27       
C           84.31       32.1        27.06       
H           84.33       31.7        28.11       
H           85.0524     32.88442    26.91292    
H           83.33       32.72       26.9        
H           81.65       27.11       19.77       
H           83.35043    26.84078    19.51066    
H           82.65       25.99       20.97       
H           81.28       32.93       20.17       
H           82.23       32.3        22.43       
H           84.98       26.77       24.82       
H           85.97       26.29       26.89       
C           81.71       31.95       20.35       
N           81.72       29.65       19.7        
C           81.4        30.92       19.42       
C           87.74       29.07       30.81       
C           87.76       27.71       30.76       
S           86.92       29.69       29.52       
H           86.97       26.03       29.43       
H           88.36       27.1        31.49       
C           87.07       27.11       29.69       
C           86.57       28.16       28.88       
C           94.99       35.0        36.66       
N           93.9        35.59       36.03       
C           95.13       33.64       36.59       
C           93.14       34.84       35.28       
C           93.21       33.43       35.1        
C           92.1        33.01       34.27       
C           91.38       34.42       33.97       
N           92.1        35.38       34.63       
C           91.62       31.76       33.86       
C           92.22       30.4        34.19       
N           91.24       29.52       33.96       
C           90.35       30.0        33.04       
C           89.6        32.0        32.09       
C           90.56       31.38       32.94       
C           94.39       32.86       35.76       
O           93.22       30.06       34.81       
O           90.31       34.75       33.47       
C           91.31       28.1        34.31       
C           91.76       36.78       34.38       
H           91.26       36.97       33.38       
H           91.16381    37.29904    35.1305     
H           92.76       37.25       34.32       
H           92.3        27.82       34.56       
H           90.58718    27.9054     35.10232    
H           91.03       27.52       33.42       
H           87.8        31.74       30.93       
H           89.7        33.04       31.85       
H           94.58       31.76       35.7        
H           96.0        33.12       36.93       
C           88.57       31.25       31.49       
N           89.38       29.26       32.47       
C           88.53       29.89       31.66       
C           96.76       38.01       38.15       
C           97.29       36.94       38.8        
S           95.46       37.61       37.11       
H           97.05       34.68       38.7        
H           98.08       37.04       39.56       
C           96.79       35.68       38.36       
C           95.86       35.92       37.38       
C           95.87       48.45       42.01       
N           96.43       47.4        42.73       
C           95.33       48.17       40.79       
C           96.57       46.19       42.19       
C           96.04       45.8        40.97       
C           96.27       44.32       40.8        
C           96.91       43.95       42.13       
N           97.07       45.09       42.86       
C           95.89       43.31       39.86       
C           94.71       43.45       38.91       
N           94.65       42.3        38.21       
C           95.65       41.37       38.59       
C           97.43       41.04       40.22       
C           96.39       41.92       39.67       
C           95.38       46.84       40.33       
O           93.83       44.31       38.84       
O           97.14       42.87       42.61       
C           93.61       42.06       37.23       
C           97.89       45.07       44.13       
H           97.73       44.11       44.74       
H           98.96563    45.14888    43.97224    
H           97.54       45.84       44.8        
H           93.17       41.14       37.51       
H           93.92383    42.06682    36.18618    
H           92.86       42.85       37.39       
H           98.33       39.09       40.05       
H           98.11       41.35       41.02       
H           94.85       46.54       39.38       
H           94.83       48.89       40.09       
C           97.67       39.79       39.64       
N           95.83       40.19       38.03       
C           96.76       39.39       38.67       
C           96.47       51.8        44.02       
C           95.88       52.12       42.83       
S           96.66       50.04       44.13       
H           95.09       51.05       41.0        
H           95.83       53.1        42.43       
C           95.52       51.0        42.0        
C           95.86       49.79       42.6        
C           99.68       59.72       50.88       
N           99.93       58.49       51.23       
C           99.34       59.99       49.51       
C           99.72       57.51       50.32       
C           99.27       57.64       48.97       
C           99.17       56.28       48.39       
C           99.64       55.36       49.48       
N           99.96       56.15       50.55       
C           98.76       55.85       47.1        
C           98.87       56.76       45.94       
N           98.36       56.07       44.89       
C           97.94       54.76       45.22       
C           97.93       53.33       47.13       
C           98.26       54.56       46.62       
C           99.12       58.98       48.6        
O           99.4        57.81       45.87       
O           99.74       54.16       49.51       
C           98.26       56.56       43.55       
C           100.62      55.77       51.78       
H           101.17      56.64       52.05       
H           99.92279    55.41456    52.53873    
H           101.34      55.05       51.49       
H           98.43       55.82       42.8        
H           97.29451    57.01392    43.32664    
H           99.06       57.28       43.39       
H           97.3        51.34       46.67       
H           98.19       53.16       48.08       
H           98.9        59.29       47.59       
H           99.06       61.02       49.17       
C           97.39       52.39       46.31       
N           97.43       53.89       44.37       
C           97.12       52.68       44.94       
C           100.33      62.04       54.03       
C           99.94       62.85       53.0        
S           100.28      60.35       53.55       
H           99.47       62.56       50.89       
H           99.87       63.94       53.01       
C           99.66       62.09       51.82       
C           99.79       60.78       51.95       
C           105.58      64.43       63.51       
N           105.4       65.44       62.66       
C           105.19      63.17       63.21       
C           104.64      65.16       61.62       
C           104.09      63.91       61.25       
C           103.33      64.02       59.94       
C           103.57      65.44       59.64       
N           104.3       66.07       60.65       
C           102.67      63.12       59.09       
C           102.46      61.68       59.49       
N           101.82      60.99       58.44       
C           101.6       61.87       57.38       
C           101.79      64.21       56.83       
C           102.1       63.17       57.76       
C           104.43      62.84       62.14       
O           102.73      61.09       60.51       
O           103.26      66.07       58.63       
C           100.93      59.9        58.7        
C           104.71      67.46       60.61       
H           104.84      67.76       59.58       
H           104.12715   68.122      61.25042    
H           105.63      67.57       61.03       
H           100.78      59.3        57.84       
H           100.02497   60.26338    59.1868     
H           101.48      59.28       59.44       
H           100.94      64.61       54.95       
H           102.05      65.25       56.96       
H           104.28      61.75       61.97       
H           105.44      62.31       63.81       
C           101.19      63.84       55.62       
N           101.1       61.53       56.21       
C           100.91      62.5        55.31       
C           107.49      64.96       66.82       
C           107.7       66.05       66.09       
S           106.53      63.74       66.06       
H           107.31      66.6        63.97       
H           108.06      67.0        66.51       
C           107.15      65.85       64.77       
C           106.44      64.74       64.63       
C           110.07      63.17       77.49       
N           110.17      64.35       76.96       
C           109.46      62.14       76.83       
C           109.85      64.5        75.67       
C           109.26      63.53       74.83       
C           109.08      64.15       73.47       
C           109.79      65.53       73.7        
N           110.15      65.65       75.03       
C           108.54      63.7        72.28       
C           108.06      62.29       72.03       
N           107.77      62.19       70.7        
C           107.85      63.43       70.09       
C           108.42      65.72       70.45       
C           108.34      64.42       70.99       
C           108.94      62.31       75.51       
O           107.84      61.38       72.8        
O           110.08      66.37       72.82       
C           107.46      60.98       70.06       
C           111.05      66.69       75.52       
H           111.39      67.11       74.63       
H           110.57964   67.41363    76.18574    
H           111.9       66.34       76.07       
H           108.15      60.92       69.2        
H           106.38739   60.83278    69.93381    
H           107.88      60.19       70.79       
H           108.07      66.91       68.76       
H           108.6       66.51       71.12       
H           108.44      61.48       75.04       
H           109.23      61.2        77.3        
C           108.15      65.87       69.07       
N           107.74      63.53       68.78       
C           107.83      64.77       68.21       
C           111.35      63.41       81.06       
C           111.11      62.15       80.81       
S           111.02      64.46       79.82       
H           110.3       60.92       79.13       
H           111.14      61.44       81.63       
C           110.68      61.87       79.5        
C           110.52      63.06       78.87       
C           113.02      66.27       91.69       
N           113.43      67.06       90.72       
C           112.41      65.06       91.39       
C           113.06      66.86       89.43       
C           112.41      65.69       89.01       
C           112.29      65.71       87.48       
C           113.01      66.97       87.14       
N           113.41      67.59       88.31       
C           111.88      64.76       86.54       
C           111.05      63.54       86.88       
N           111.02      62.77       85.79       
C           111.38      63.53       84.64       
C           112.1       65.67       83.94       
C           111.84      64.78       85.01       
C           112.1       64.8        90.09       
O           110.61      63.1        87.98       
O           113.34      67.33       86.04       
C           110.56      61.41       85.74       
C           114.13      68.77       88.29       
H           115.15      68.67       88.71       
H           113.61802   69.60197    88.77354    
H           114.26      69.02       87.28       
H           110.69      60.94       86.74       
H           109.54764   61.27411    85.35952    
H           111.31      60.85       85.14       
H           112.44      65.96       81.87       
H           112.25      66.69       84.23       
H           111.72      63.8        89.91       
H           112.15      64.3        92.11       
C           112.03      65.27       82.64       
N           111.19      63.18       83.41       
C           111.57      63.98       82.36       
C           115.49      66.94       94.56       
C           114.51      66.09       95.11       
S           115.21      67.28       92.87       
H           112.67      65.11       94.27       
H           114.49      65.76       96.15       
C           113.49      65.76       94.13       
C           113.77      66.35       92.94       
C           124.53      71.94       98.69       
N           123.91      71.02       99.47       
C           124.17      72.21       97.38       
C           122.89      70.4        98.93       
C           122.38      70.56       97.62       
C           121.18      69.69       97.47       
C           121.05      69.04       98.87       
N           122.11      69.58       99.71       
C           120.24      69.4        96.45       
C           120.34      70.15       95.11       
N           119.3       69.77       94.36       
C           118.47      68.88       94.99       
C           118.41      67.57       96.91       
C           119.06      68.52       96.21       
C           123.17      71.47       96.82       
O           121.11      71.04       94.72       
O           120.09      68.37       99.28       
C           119.25      70.14       92.93       
C           122.22      69.41       101.16      
H           123.23      69.26       101.44      
H           121.807     70.27872    101.67269   
H           121.6       68.52       101.38      
H           118.3       70.52       92.75       
H           119.37777   69.31661    92.22728    
H           119.98      70.94       92.68       
H           116.68      66.35       96.99       
H           118.76      67.12       97.83       
H           122.97      71.72       95.8        
H           124.74      72.9        96.86       
C           117.21      67.07       96.39       
N           117.41      68.33       94.41       
C           116.67      67.46       95.18       
C           127.28      73.43       100.99      
C           127.1       74.22       99.85       
S           126.21      72.06       100.89      
H           125.97      74.36       98.01       
H           127.65      75.15       99.75       
C           126.12      73.81       98.97       
C           125.52      72.66       99.39       
H           71.25       26.02       -7.41       
H           128.23      73.42       101.53      
