392

C           76.28       11.52       2.75        
N           76.21       11.6        1.45        
C           75.95       12.5        3.67        
C           75.59       12.7        1.02        
C           75.15       13.82       1.78        
C           74.47       14.81       0.89        
C           74.6        14.13       -0.48       
N           75.35       13.0        -0.32       
C           74.01       16.08       1.1         
C           73.57       16.63       2.47        
N           73.2        18.01       2.28        
C           73.41       18.36       0.95        
C           74.1        17.5        -1.13       
C           73.87       17.26       0.23        
C           75.48       13.68       3.13        
O           73.47       16.07       3.59        
O           74.1        14.45       -1.52       
C           72.89       18.92       3.41        
C           75.68       12.01       -1.36       
H           74.88       12.01       -2.12       
H           76.72082    12.03153    -1.68301    
H           75.4        11.05       -0.91       
H           72.05       19.52       3.09        
H           73.73949    19.54667    3.68156     
H           72.54       18.21       4.13        
H           74.28       19.01       -2.62       
H           74.47       16.72       -1.76       
H           75.44       14.59       3.73        
H           76.14       12.36       4.71        
C           73.84       18.75       -1.67       
N           73.13       19.56       0.52        
C           73.31       19.76       -0.85       
C           77.78       8.42        4.55        
C           77.79       8.12        3.2         
S           76.78       9.85        4.94        
H           77.25       9.2         1.27        
H           78.26       7.15        2.76        
C           77.18       9.16        2.39        
C           76.68       10.15       3.17        
C           80.34       2.88        13.97       
N           80.7        2.41        12.79       
C           79.47       3.95        14.04       
C           80.35       3.0         11.71       
C           79.54       4.17        11.6        
C           79.56       4.6         10.14       
C           80.36       3.51        9.44        
N           80.64       2.57        10.44       
C           78.99       5.66        9.44        
C           78.1        6.71        10.11       
N           77.6        7.53        9.21        
C           78.08       7.28        7.93        
C           79.31       5.69        6.69        
C           78.87       6.15        8.02        
C           79.08       4.59        12.82       
O           77.86       6.89        11.33       
O           80.76       3.36        8.28        
C           76.77       8.66        9.58        
C           81.22       1.24        10.11       
H           81.89       1.0         10.97       
H           80.45993    0.45901     10.08908    
H           81.89       1.26        9.29        
H           76.07       8.82        8.79        
H           77.33601    9.59141     9.56567     
H           76.26       8.55        10.56       
H           79.39       5.97        4.6         
H           79.96       4.85        6.6         
H           78.34       5.35        12.86       
H           79.02       4.23        14.93       
C           78.97       6.39        5.52        
N           77.84       8.0         6.86        
C           78.25       7.57        5.7         
C           81.26       1.34        17.42       
C           81.82       0.58        16.37       
S           80.25       2.55        16.71       
H           82.05       0.64        14.22       
H           82.39       -0.33       16.56       
C           81.6        1.08        15.08       
C           80.83       2.24        15.12       
C           82.46       0.13        28.34       
N           82.56       1.28        27.69       
C           82.28       -1.02       27.62       
C           82.28       1.35        26.41       
C           82.14       0.23        25.57       
C           81.98       0.77        24.18       
C           82.15       2.29        24.39       
N           82.26       2.56        25.76       
C           81.88       0.25        22.87       
C           82.12       -1.23       22.49       
N           82.14       -1.44       21.13       
C           81.79       -0.24       20.46       
C           81.19       2.01        21.01       
C           81.62       0.75        21.49       
C           82.12       -1.03       26.25       
O           82.27       -2.14       23.26       
O           82.28       3.13        23.51       
C           82.45       -2.74       20.44       
C           82.38       3.85        26.33       
H           82.88       4.52        25.55       
H           81.4228     4.29017     26.60948    
H           82.96       3.62        27.24       
H           82.0        -2.68       19.43       
H           83.52607    -2.8877     20.34857    
H           82.14       -3.57       21.08       
H           80.56       3.23        19.34       
H           80.87       2.79        21.68       
H           81.98       -1.96       25.75       
H           82.34       -2.0        28.02       
C           80.93       2.21        19.66       
N           81.61       -0.06       19.18       
C           81.22       1.14        18.8        
C           83.48       0.9         31.98       
C           83.66       -0.47       31.83       
S           83.04       1.69        30.56       
H           83.08       -1.92       30.19       
H           84.2        -1.17       32.58       
C           83.22       -0.88       30.51       
C           82.83       0.17        29.73       
C           87.74       5.41        41.33       
N           87.54       6.15        40.2        
C           87.2        4.19        41.42       
C           86.88       5.67        39.16       
C           86.46       4.32        39.01       
C           85.94       4.13        37.58       
C           86.15       5.53        36.97       
N           86.78       6.32        37.94       
C           85.41       3.11        36.84       
C           85.1        1.7         37.44       
N           84.58       0.85        36.46       
C           84.47       1.53        35.31       
C           84.78       3.59        34.27       
C           84.9        2.87        35.45       
C           86.53       3.61        40.28       
O           85.3        1.31        38.54       
O           85.96       5.97        35.82       
C           84.35       -0.59       36.65       
C           87.45       7.55        37.6        
H           87.9        7.37        36.56       
H           86.81446    8.43423     37.55164    
H           88.22       7.8         38.32       
H           84.75       -0.95       37.68       
H           83.29159    -0.82441    36.76365    
H           84.88       -1.13       35.9        
H           84.2        3.54        32.19       
H           84.92       4.66        34.16       
H           86.2        2.58        40.36       
H           87.35       3.52        42.28       
C           84.26       2.96        33.09       
N           84.0        0.91        34.2        
C           83.86       1.66        33.11       
C           89.96       7.5         43.71       
C           89.72       6.34        44.35       
S           89.18       7.55        42.2        
H           88.63       4.46        43.81       
H           90.14       6.06        45.25       
C           88.89       5.46        43.54       
C           88.43       6.0         42.43       
C           95.42       16.6        46.76       
N           95.43       15.49       47.53       
C           94.9        16.5        45.48       
C           94.73       14.44       47.18       
C           94.07       14.29       45.96       
C           93.55       12.91       45.94       
C           93.98       12.33       47.27       
N           94.65       13.33       47.98       
C           92.9        12.19       45.03       
C           92.45       12.7        43.65       
N           91.76       11.75       43.0        
C           91.58       10.65       43.81       
C           92.19       9.56        45.82       
C           92.25       10.8        45.03       
C           94.06       15.4        45.15       
O           92.63       13.81       43.16       
O           93.9        11.19       47.62       
C           91.07       12.0        41.8        
C           94.84       13.29       49.42       
H           93.88       13.05       49.84       
H           95.70508    12.68728    49.69654    
H           94.9        14.35       49.7        
H           90.09       11.45       41.89       
H           91.62377    11.6476     40.92979    
H           90.94       13.04       41.76       
H           91.37       7.55        45.96       
H           92.7        9.46        46.76       
H           93.56       15.47       44.22       
H           95.02       17.37       44.78       
C           91.46       8.48        45.36       
N           90.87       9.63        43.36       
C           90.8        8.55        44.14       
C           96.82       19.63       48.84       
C           96.65       20.02       47.56       
S           96.41       17.9        48.99       
H           96.1        19.15       45.58       
H           96.82       21.07       47.33       
C           96.19       19.0        46.68       
C           96.06       17.77       47.29       
C           101.1       25.99       56.88       
N           100.41      24.87       57.22       
C           101.2       26.39       55.61       
C           99.82       24.17       56.23       
C           99.89       24.45       54.81       
C           99.11       23.42       54.14       
C           98.61       22.6        55.29       
N           99.07       23.02       56.47       
C           98.85       23.21       52.79       
C           98.95       24.34       51.74       
N           98.6        23.76       50.51       
C           98.17       22.47       50.69       
C           97.94       20.7        52.28       
C           98.36       22.07       52.06       
C           100.63      25.62       54.58       
O           99.39       25.5        51.79       
O           97.81       21.68       55.22       
C           99.03       24.39       49.24       
C           99.05       22.31       57.76       
H           100.04      22.43       58.13       
H           98.22931    22.57885    58.42504    
H           99.06       21.21       57.51       
H           99.89       23.83       48.85       
H           98.25292    24.44037    48.47731    
H           99.4        25.37       49.44       
H           97.12       18.82       51.36       
H           98.18       20.29       53.25       
H           100.64      25.99       53.55       
H           101.72      27.34       55.41       
C           97.35       19.9        51.23       
N           97.64       21.77       49.72       
C           97.18       20.49       50.0        
C           103.08      27.23       59.95       
C           103.26      28.2        59.01       
S           102.18      25.87       59.41       
H           102.5       28.58       57.04       
H           103.89      29.03       59.09       
C           102.52      27.92       57.87       
C           101.78      26.68       57.95       
C           108.55      23.78       68.96       
N           109.01      24.92       68.3        
C           107.69      22.92       68.35       
C           108.41      25.25       67.18       
C           107.47      24.48       66.44       
C           106.98      25.33       65.33       
C           108.06      26.38       65.25       
N           108.67      26.34       66.44       
C           105.9       25.27       64.45       
C           104.77      24.28       64.67       
N           103.75      24.53       63.81       
C           104.13      25.55       62.98       
C           105.75      27.36       62.65       
C           105.39      26.17       63.39       
C           107.17      23.29       67.11       
O           104.67      23.35       65.46       
O           108.31      27.27       64.42       
C           102.59      23.69       63.69       
C           109.65      27.4        66.85       
H           110.01      27.96       65.93       
H           109.26083   28.088      67.60054    
H           110.51      26.84       67.18       
H           102.41      23.6        62.65       
H           101.68616   24.11368    64.1278     
H           102.79      22.71       64.16       
H           105.29      28.57       60.9        
H           106.64      27.92       62.81       
H           106.43      22.57       66.7        
H           107.42      21.97       68.86       
C           104.97      27.78       61.56       
N           103.45      25.88       61.86       
C           103.87      26.98       61.18       
C           109.55      22.89       72.56       
C           110.26      23.97       72.19       
S           108.45      22.44       71.3        
H           110.6       25.31       70.42       
H           111.01      24.41       72.85       
C           110.04      24.48       70.87       
C           109.05      23.75       70.31       
C           109.76      17.25       82.02       
N           110.82      17.86       81.62       
C           108.63      17.03       81.22       
C           110.84      18.42       80.41       
C           109.77      18.39       79.51       
C           110.05      19.28       78.39       
C           111.5       19.7        78.71       
N           111.86      19.18       79.95       
C           109.43      19.63       77.15       
C           108.08      19.04       76.68       
N           107.73      19.68       75.48       
C           108.8       20.49       75.1        
C           110.82      21.45       75.75       
C           109.8       20.59       76.08       
C           108.7       17.55       79.91       
O           107.35      18.28       77.3        
O           112.3       20.19       77.97       
C           106.44      19.6        74.85       
C           113.06      19.55       80.66       
H           112.82      20.07       81.59       
H           113.77173   18.74667    80.85026    
H           113.46      20.36       80.1        
H           106.64      19.42       73.8        
H           105.75736   20.43354    75.01527    
H           106.0       18.67       75.31       
H           111.61      22.96       74.4        
H           111.54      21.64       76.49       
H           107.82      17.39       79.33       
H           107.88      16.31       81.52       
C           110.85      22.18       74.55       
N           108.74      21.12       73.9        
C           109.76      21.99       73.66       
C           110.65      16.68       85.68       
C           109.42      16.09       85.56       
S           111.34      17.06       84.18       
H           107.94      16.21       83.89       
H           108.77      15.63       86.34       
C           108.92      16.34       84.26       
C           109.82      16.84       83.4        
C           117.39      15.81       94.38       
N           117.97      16.23       93.22       
C           116.04      15.55       94.48       
C           117.16      16.36       92.24       
C           115.74      16.19       92.21       
C           115.22      16.49       90.85       
C           116.45      16.99       90.15       
N           117.48      17.0        91.07       
C           114.01      16.31       90.26       
C           112.82      15.53       90.9        
N           111.75      15.51       90.06       
C           112.14      16.15       88.94       
C           113.8       17.43       87.78       
C           113.46      16.7        88.97       
C           115.19      15.72       93.38       
O           112.76      14.98       91.96       
O           116.58      17.52       89.05       
C           110.42      14.89       90.28       
C           118.58      17.96       91.01       
H           119.5       17.42       91.37       
H           118.39624   18.86468    91.58956    
H           118.69      18.18       89.94       
H           110.55      14.08       91.11       
H           109.66619   15.61614    90.58429    
H           110.2       14.31       89.34       
H           113.05      18.08       85.81       
H           114.69      18.0        87.66       
H           114.12      15.68       93.61       
H           115.6       15.2        95.39       
C           112.83      17.48       86.7        
N           111.25      16.15       87.93       
C           111.56      16.79       86.78       
C           119.52      15.81       97.69       
C           120.43      15.91       96.67       
S           117.89      15.74       97.09       
H           120.32      16.17       94.43       
H           121.51      15.98       96.77       
C           119.78      16.02       95.37       
C           118.41      15.86       95.44       
C           122.83      16.02       108.24      
N           121.7       16.6        107.89      
C           123.52      15.29       107.32      
C           121.39      16.53       106.63      
C           121.93      15.76       105.56      
C           121.12      15.89       104.34      
C           119.99      16.85       104.73      
N           120.2       17.13       106.11      
C           121.29      15.4        103.03      
C           122.53      14.63       102.56      
N           122.43      14.54       101.2       
C           121.29      15.15       100.69      
C           119.18      16.04       101.39      
C           120.44      15.53       101.76      
C           123.08      15.09       106.0       
O           123.48      14.16       103.13      
O           119.07      17.33       104.15      
C           123.49      13.89       100.34      
C           119.33      17.92       106.93      
H           119.58      17.59       107.96      
H           119.52268   18.99046    106.85864   
H           118.32      17.61       106.63      
H           123.81      14.59       99.58       
H           123.09508   13.02259    99.81109    
H           124.36      13.67       100.98      
H           117.85      16.46       99.81       
H           118.39      16.31       102.11      
H           123.6       14.37       105.39      
H           124.47      14.8        107.64      
C           118.82      15.96       100.04      
N           120.95      15.19       99.39       
C           119.77      15.58       99.09       
C           123.43      17.11       112.06      
C           124.52      16.34       111.72      
S           122.27      17.16       110.74      
H           125.23      15.17       109.88      
H           125.31      15.98       112.39      
C           124.42      15.81       110.33      
C           123.28      16.25       109.66      
H           72.6        20.41       -1.25       
H           123.5       17.96       112.78      
