392

C           118.72      31.98       15.6        
N           118.93      31.04       14.67       
C           119.58      32.25       16.65       
C           120.08      30.4        14.8        
C           121.08      30.58       15.77       
C           122.18      29.58       15.51       
C           121.62      28.78       14.35       
N           120.45      29.33       14.02       
C           123.47      29.39       16.1        
C           124.29      30.38       17.03       
N           125.49      29.78       17.42       
C           125.65      28.52       16.81       
C           124.45      26.96       15.54       
C           124.47      28.28       16.06       
C           120.84      31.63       16.66       
O           123.98      31.51       17.4        
O           122.13      27.9        13.68       
C           126.51      30.39       18.29       
C           119.44      28.62       13.15       
H           118.41      29.03       13.51       
H           119.5611    28.79809    12.08149    
H           119.59      27.53       13.4        
H           127.53      30.05       17.99       
H           126.29109   30.33351    19.3563     
H           126.44      31.5        18.07       
H           125.53      25.22       15.19       
H           123.59      26.59       15.04       
H           121.57      31.8        17.43       
H           119.31      33.06       17.34       
C           125.58      26.12       15.74       
N           126.79      27.84       16.82       
C           126.75      26.63       16.23       
C           115.08      33.14       14.78       
C           115.39      33.62       16.02       
S           116.49      32.3        14.09       
H           117.06      33.62       17.37       
H           114.68      34.16       16.62       
C           116.7       33.35       16.41       
C           117.36      32.47       15.58       
C           105.78      34.28       8.63        
N           105.95      34.98       9.8         
C           106.73      33.33       8.28        
C           107.08      34.78       10.41       
C           108.07      33.86       10.16       
C           109.12      33.92       11.2        
C           108.5       34.98       12.15       
N           107.31      35.45       11.61       
C           110.36      33.35       11.59       
C           111.04      32.44       10.61       
N           112.34      32.19       10.98       
C           112.57      32.84       12.2        
C           111.7       34.46       13.68       
C           111.4       33.62       12.56       
C           107.78      33.03       9.1         
O           110.56      32.0        9.62        
O           108.83      35.31       13.26       
C           113.4       31.69       10.11       
C           106.36      36.41       12.29       
H           106.55      36.43       13.38       
H           106.39593   37.38725    11.80856    
H           105.38      36.01       12.09       
H           114.1       31.11       10.76       
H           113.96575   32.45628    9.58005     
H           113.03      30.98       9.36        
H           113.03      35.08       15.2        
H           111.0       35.17       14.02       
H           108.41      32.26       8.91        
H           106.59      32.69       7.35        
C           112.86      34.32       14.42       
N           113.71      32.67       12.91       
C           113.83      33.4        14.01       
C           102.04      34.8        7.53        
C           102.64      34.14       6.55        
S           103.16      35.05       8.91        
H           104.69      33.31       6.19        
H           102.08      33.89       5.67        
C           104.05      33.91       6.83        
C           104.5       34.4        8.0         
C           91.5        38.51       7.05        
N           92.3        38.76       8.13        
C           91.97       37.81       6.0         
C           93.54       38.23       8.12        
C           94.12       37.49       7.1         
C           95.44       37.0        7.53        
C           95.46       37.55       9.01        
N           94.35       38.3        9.22        
C           96.48       36.15       7.05        
C           96.45       35.26       5.79        
N           97.67       34.59       5.64        
C           98.54       35.08       6.58        
C           98.76       36.38       8.54        
C           97.9        35.96       7.52        
C           93.28       37.24       5.98        
O           95.52       35.21       4.92        
O           96.28       37.32       9.87        
C           98.0        33.83       4.43        
C           93.89       38.59       10.59       
H           94.11       37.78       11.25       
H           94.33417    39.52202    10.93951    
H           92.87       38.7        10.4        
H           99.05       34.05       4.29        
H           97.91583    32.74982    4.54924     
H           97.42       34.25       3.6         
H           100.81      36.2        9.38        
H           98.4        37.06       9.26        
H           93.58       36.66       5.14        
H           91.31       37.68       5.16        
C           100.13      35.94       8.58        
N           99.82       34.77       6.6         
C           100.6       35.17       7.56        
C           88.48       40.93       7.11        
C           88.14       39.81       6.36        
S           90.05       40.66       7.76        
H           89.12       38.0        5.5         
H           87.14       39.75       5.86        
C           89.17       38.86       6.2         
C           90.22       39.14       6.98        
C           83.5        50.87       8.65        
N           84.83       50.65       8.74        
C           82.66       49.81       8.28        
C           85.3        49.48       8.35        
C           84.57       48.32       7.96        
C           85.53       47.21       7.68        
C           86.88       47.94       7.96        
N           86.63       49.25       8.36        
C           85.44       45.86       7.31        
C           84.18       45.13       6.93        
N           84.49       43.76       6.77        
C           85.9        43.54       7.08        
C           87.85       44.65       7.77        
C           86.46       44.76       7.37        
C           83.18       48.62       7.9         
O           83.02       45.5        6.78        
O           88.04       47.64       7.87        
C           83.73       42.89       5.99        
C           87.65       50.24       8.72        
H           87.15       51.15       8.9         
H           88.0625     49.9953     9.69881     
H           88.43       50.18       7.91        
H           84.15       41.95       5.92        
H           82.7539     42.74322    6.45236     
H           83.61       43.39       5.05        
H           89.43       43.36       8.12        
H           88.37       45.42       8.2         
H           82.52       47.86       7.61        
H           81.61       49.94       8.3         
C           88.45       43.39       7.75        
N           86.51       42.4        6.9         
C           87.86       42.22       7.25        
C           82.81       54.12       10.64       
C           81.68       53.92       9.97        
S           84.06       53.1        10.15       
H           80.8        52.25       8.93        
H           80.75       54.49       10.09       
C           81.73       52.68       9.29        
C           82.96       52.13       9.24        
C           85.42       62.08       18.29       
N           86.18       60.94       18.11       
C           84.35       62.33       17.47       
C           85.82       60.04       17.24       
C           84.67       60.18       16.36       
C           84.64       58.91       15.55       
C           85.77       58.05       16.09       
N           86.45       58.78       17.05       
C           83.78       58.4        14.5        
C           82.43       59.02       14.13       
N           81.86       58.25       13.13       
C           82.68       57.13       12.81       
C           84.75       56.12       13.32       
C           83.87       57.2        13.63       
C           83.92       61.37       16.53       
O           81.84       60.0        14.55       
O           86.07       56.88       15.85       
C           80.54       58.49       12.62       
C           87.43       58.24       17.95       
H           87.32       57.2        18.16       
H           88.44283    58.58479    17.74169    
H           87.15       58.68       18.9        
H           79.96       57.51       12.83       
H           80.64072    58.76338    11.56966    
H           80.0        59.29       13.17       
H           85.11       54.37       12.19       
H           85.72       56.07       13.76       
H           83.1        61.6        15.86       
H           83.83       63.28       17.55       
C           84.43       55.17       12.33       
N           82.36       56.16       11.96       
C           83.21       55.19       11.59       
C           87.23       63.89       21.18       
C           86.33       64.78       20.67       
S           87.07       62.36       20.41       
H           84.92       64.9        19.0        
H           86.23       65.78       21.04       
C           85.62       64.27       19.52       
C           85.82       62.93       19.39       
C           93.75       65.64       29.91       
N           94.16       64.82       28.89       
C           92.6        66.5        29.68       
C           93.34       64.63       27.87       
C           92.13       65.32       27.63       
C           91.57       64.72       26.42       
C           92.62       63.7        25.98       
N           93.62       63.69       26.89       
C           90.34       64.85       25.8        
C           89.21       65.79       26.2        
N           88.09       65.75       25.34       
C           88.49       64.95       24.32       
C           90.05       63.48       23.56       
C           89.8        64.33       24.53       
C           91.78       66.31       28.56       
O           88.99       66.19       27.3        
O           92.61       62.9        25.05       
C           86.92       66.47       25.49       
C           94.84       62.93       26.71       
H           95.57       63.42       27.33       
H           94.85378    61.92433    27.13018    
H           95.15       63.03       25.68       
H           86.74       66.48       26.59       
H           87.00595    67.45847    25.03874    
H           86.12       65.93       24.94       
H           89.65       62.68       21.64       
H           91.01       62.98       23.51       
H           90.84       66.9        28.54       
H           92.22       67.2        30.43       
C           89.29       63.33       22.41       
N           87.65       64.76       23.31       
C           88.08       63.99       22.31       
C           96.07       64.93       32.87       
C           95.39       66.06       33.22       
S           95.56       64.27       31.32       
H           93.95       67.39       32.22       
H           95.53       66.59       34.13       
C           94.61       66.53       32.08       
C           94.61       65.68       31.03       
C           103.63      60.3        39.63       
N           103.08      59.55       38.68       
C           103.29      61.65       39.85       
C           102.08      60.16       37.96       
C           101.78      61.55       37.98       
C           100.71      61.74       36.98       
C           100.43      60.31       36.46       
N           101.29      59.46       37.08       
C           99.89       62.82       36.52       
C           99.88       64.14       37.21       
N           98.96       64.95       36.6        
C           98.52       64.38       35.4        
C           98.57       62.4        34.2        
C           98.99       63.02       35.33       
C           102.43      62.31       38.96       
O           100.4       64.48       38.3        
O           99.66       59.78       35.68       
C           98.29       66.0        37.33       
C           101.19      58.01       37.19       
H           101.99      57.58       37.75       
H           100.2989    57.75441    37.76334    
H           101.19      57.61       36.18       
H           97.21       66.01       37.08       
H           98.71826    66.99213    37.18725    
H           98.32       65.73       38.37       
H           97.23       62.24       32.54       
H           98.97       61.45       34.01       
H           102.25      63.36       39.15       
H           103.73      62.25       40.7        
C           97.6        62.88       33.34       
N           97.6        64.84       34.58       
C           97.09       64.17       33.59       
C           105.94      57.66       41.12       
C           105.9       58.61       42.09       
S           105.25      58.17       39.6        
H           104.78      60.54       42.34       
H           106.41      58.53       43.03       
C           104.94      59.67       41.72       
C           104.51      59.52       40.44       
C           110.68      47.85       38.78       
N           110.68      48.29       40.03       
C           110.1       48.63       37.74       
C           110.02      49.42       40.3        
C           109.5       50.41       39.34       
C           109.04      51.66       40.02       
C           109.37      51.23       41.51       
N           109.9       49.99       41.59       
C           108.45      52.86       39.67       
C           107.83      53.06       38.22       
N           107.09      54.23       38.29       
C           107.29      54.86       39.52       
C           108.17      54.67       41.72       
C           108.07      54.11       40.44       
C           109.57      49.88       38.0        
O           107.84      52.43       37.21       
O           109.39      51.92       42.53       
C           106.33      54.73       37.16       
C           110.3       49.33       42.81       
H           110.01      48.35       42.72       
H           111.38348   49.23913    42.88689    
H           109.93      49.78       43.68       
H           106.23      55.8        37.22       
H           105.32323   54.32729    37.04891    
H           106.9       54.51       36.3        
H           107.55      56.34       42.93       
H           108.76      54.25       42.47       
H           109.22      50.45       37.14       
H           110.07      48.2        36.7        
C           107.51      55.91       41.99       
N           106.76      56.0        39.76       
C           106.8       56.51       41.0        
C           110.84      44.08       38.1        
C           111.79      44.37       39.04       
S           110.34      45.56       37.33       
H           112.56      46.12       40.18       
H           112.28      43.55       39.59       
C           111.89      45.7        39.39       
C           111.04      46.46       38.65       
C           105.91      35.14       33.48       
N           106.9       35.01       34.41       
C           105.63      36.44       33.02       
C           107.53      36.08       34.88       
C           107.39      37.43       34.47       
C           108.21      38.3        35.41       
C           108.99      37.26       36.18       
N           108.5       35.98       35.84       
C           108.3       39.7        35.68       
C           107.43      40.66       34.96       
N           107.69      41.9        35.45       
C           108.7       41.93       36.4        
C           110.3       40.45       37.27       
C           109.17      40.6        36.53       
C           106.29      37.59       33.58       
O           106.58      40.53       34.09       
O           109.74      37.43       37.09       
C           106.71      43.03       35.34       
C           108.73      34.83       36.65       
H           108.65      33.9        36.06       
H           108.0058    34.7377     37.4594     
H           109.72      35.01       37.03       
H           106.82      43.57       36.27       
H           107.03698   43.67701    34.52602    
H           105.73      42.64       35.29       
H           111.74      41.58       38.41       
H           110.72      39.45       37.44       
H           105.89      38.51       33.34       
H           104.85      36.55       32.29       
C           110.85      41.6        37.81       
N           109.2       43.07       36.89       
C           110.27      42.84       37.62       
C           104.73      31.47       32.72       
C           103.65      32.33       32.55       
S           106.03      32.41       33.46       
H           103.18      34.5        32.68       
H           102.65      31.97       32.24       
C           103.93      33.67       32.8        
C           105.22      33.91       33.25       
C           106.27      20.48       32.62       
N           105.21      21.0        31.95       
C           107.02      21.33       33.43       
C           105.06      22.31       31.82       
C           105.85      23.27       32.49       
C           105.29      24.59       32.16       
C           104.14      24.35       31.25       
N           104.05      22.93       31.17       
C           105.64      25.85       32.52       
C           107.07      26.17       33.03       
N           107.17      27.48       33.36       
C           106.1       28.2        32.92       
C           103.86      27.83       32.17       
C           105.11      27.28       32.46       
C           106.77      22.71       33.39       
O           108.01      25.52       33.33       
O           103.23      25.07       30.86       
C           108.26      28.02       34.06       
C           102.99      22.23       30.47       
H           102.01      22.74       30.52       
H           103.29582   22.12806    29.42876    
H           102.78      21.29       30.96       
H           107.89      28.7        34.85       
H           108.94497   28.48866    33.3534     
H           108.71      27.22       34.56       
H           102.83      29.76       31.84       
H           103.01      27.19       32.02       
H           107.35      23.35       33.99       
H           107.85      20.88       33.99       
C           103.73      29.27       32.22       
N           105.98      29.53       32.98       
C           104.8       30.03       32.65       
C           106.52      16.7        31.86       
C           107.45      16.91       32.81       
S           105.71      18.11       31.3        
H           107.98      18.64       34.07       
H           108.14      16.12       33.24       
C           107.39      18.24       33.24       
C           106.5       19.03       32.57       
H           127.5       25.9        16.56       
H           106.42      15.73       31.42       
