392

C           79.33       11.05       3.64        
N           78.85       11.6        2.51        
C           79.33       11.75       4.8         
C           78.39       12.84       2.5         
C           78.51       13.78       3.62        
C           78.07       15.1        3.08        
C           77.54       14.74       1.69        
N           77.86       13.49       1.43        
C           78.05       16.37       3.65        
C           79.05       16.81       4.67        
N           78.75       18.12       5.04        
C           77.78       18.66       4.22        
C           76.36       18.05       2.45        
C           77.36       17.6        3.32        
C           78.95       13.18       4.81        
O           80.01       16.15       5.15        
O           77.14       15.57       0.8         
C           79.53       18.86       5.99        
C           77.32       12.77       0.26        
H           76.21       12.99       0.19        
H           77.82287    12.9927     -0.68108    
H           77.37       11.71       0.47        
H           78.93       19.51       6.64        
H           80.34317    19.3974     5.5021      
H           79.94       18.09       6.69        
H           75.35       19.65       1.59        
H           76.1        17.39       1.66        
H           78.97       13.73       5.72        
H           79.78       11.23       5.64        
C           75.99       19.35       2.43        
N           77.39       19.87       4.31        
C           76.5        20.31       3.35        
C           80.96       7.47        3.94        
C           80.61       7.59        2.64        
S           80.71       8.98        4.85        
H           79.87       9.21        1.31        
H           80.58       6.74        1.89        
C           80.16       8.94        2.33        
C           79.96       9.73        3.46        
C           82.26       -1.07       10.91       
N           82.06       -1.36       9.63        
C           82.42       0.27        11.35       
C           82.07       -0.24       8.83        
C           82.1        1.15        9.16        
C           81.91       1.98        7.95        
C           81.84       0.91        6.85        
N           81.9        -0.3        7.42        
C           81.97       3.28        7.64        
C           82.28       4.36        8.68        
N           82.3        5.6         8.03        
C           81.92       5.37        6.7         
C           81.3        3.91        5.02        
C           81.7        4.04        6.41        
C           82.32       1.39        10.5        
O           82.51       4.3         9.86        
O           81.92       1.13        5.66        
C           82.89       6.76        8.55        
C           81.99       -1.52       6.72        
H           82.65       -2.31       7.2         
H           81.05355    -1.99895    6.43406     
H           82.61       -1.35       5.87        
H           82.24       7.61        8.43        
H           83.91827    6.83092     8.19542     
H           82.89       6.56        9.6         
H           80.73       4.87        3.15        
H           81.05       3.0         4.65        
H           82.46       2.35        10.95       
H           82.43       0.34        12.43       
C           81.16       4.99        4.18        
N           81.8        6.43        5.9         
C           81.44       6.25        4.63        
C           82.47       -3.59       13.97       
C           82.01       -4.3        12.9        
S           82.65       -1.94       13.51       
H           81.23       -3.69       10.89       
H           81.86       -5.35       12.87       
C           81.7        -3.42       11.82       
C           82.11       -2.15       11.91       
C           88.03       -7.32       22.58       
N           87.75       -6.01       22.48       
C           87.39       -8.25       21.87       
C           86.74       -5.66       21.7        
C           86.06       -6.54       20.8        
C           85.29       -5.64       19.93       
C           85.44       -4.22       20.53       
N           86.38       -4.31       21.55       
C           84.62       -5.81       18.71       
C           84.55       -7.17       18.04       
N           84.07       -7.06       16.79       
C           83.57       -5.74       16.58       
C           83.32       -3.63       17.56       
C           83.83       -4.95       17.7        
C           86.4        -7.86       20.95       
O           85.07       -8.2        18.33       
O           84.85       -3.21       20.17       
C           84.28       -8.02       15.8        
C           87.27       -3.2        21.91       
H           87.2        -2.42       21.15       
H           86.98489    -2.74382    22.858      
H           88.31       -3.45       21.93       
H           83.51       -8.05       15.06       
H           85.31617    -8.07797    15.46669    
H           84.03       -8.96       16.28       
H           82.6        -2.13       16.22       
H           83.4        -3.03       18.38       
H           85.91       -8.59       20.37       
H           87.53       -9.29       22.0        
C           82.87       -3.17       16.34       
N           83.16       -5.37       15.41       
C           82.91       -4.04       15.26       
C           91.04       -7.49       24.99       
C           90.78       -8.8        24.75       
S           90.06       -6.38       24.07       
H           89.03       -9.84       23.64       
H           91.16       -9.67       25.26       
C           89.58       -8.91       23.9        
C           89.11       -7.68       23.49       
C           96.7        -3.82       33.66       
N           95.95       -2.99       32.92       
C           96.77       -5.19       33.47       
C           95.37       -3.58       31.86       
C           95.54       -4.9        31.36       
C           94.72       -5.03       30.17       
C           94.39       -3.57       29.84       
N           94.77       -2.79       30.88       
C           94.34       -6.04       29.32       
C           94.96       -7.46       29.32       
N           94.33       -8.19       28.35       
C           93.41       -7.43       27.68       
C           92.4        -5.23       27.62       
C           93.39       -6.08       28.22       
C           96.19       -5.77       32.31       
O           95.82       -7.94       29.97       
O           93.94       -3.04       28.83       
C           94.99       -9.34       27.74       
C           94.93       -1.37       30.77       
H           94.92       -0.93       29.76       
H           94.08435    -0.8908     31.2633     
H           95.9        -1.14       31.15       
H           96.04       -9.16       27.6        
H           94.82655    -10.29226   28.24456    
H           94.69       -9.4        26.76       
H           90.97       -5.04       26.08       
H           92.31       -4.26       28.04       
H           96.17       -6.8        32.02       
H           97.19       -5.82       34.15       
C           91.75       -5.62       26.5        
N           92.72       -7.81       26.64       
C           91.91       -6.91       25.99       
C           98.85       -1.46       36.07       
C           98.84       -2.7        36.64       
S           97.92       -1.46       34.62       
H           98.08       -4.74       36.05       
H           99.31       -3.05       37.5        
C           98.14       -3.67       35.76       
C           97.48       -3.13       34.71       
C           100.75      8.85        39.05       
N           100.66      7.94        40.07       
C           100.9       8.52        37.68       
C           100.82      6.65        39.7        
C           100.88      6.16        38.33       
C           100.67      4.66        38.46       
C           100.67      4.39        39.98       
N           100.74      5.62        40.59       
C           100.43      3.69        37.46       
C           100.19      4.08        36.01       
N           99.86       2.98        35.26       
C           99.81       1.93        36.11       
C           100.14      1.16        38.31       
C           100.14      2.24        37.45       
C           101.03      7.15        37.32       
O           100.17      5.2         35.54       
O           100.64      3.32        40.57       
C           99.19       3.22        33.97       
C           100.63      5.87        42.07       
H           99.82       5.37        42.6        
H           101.60043   5.78374     42.55881    
H           100.29      6.91        42.23       
H           98.2        2.75        33.9        
H           99.85293    3.02544     33.12693    
H           98.92       4.24        33.89       
H           99.66       -0.88       38.48       
H           100.49      1.31        39.31       
H           101.36      6.88        36.32       
H           101.01      9.26        36.94       
C           99.64       -0.05       37.88       
N           99.33       0.78        35.64       
C           99.33       -0.18       36.52       
C           100.97      12.31       40.9        
C           101.0       12.55       39.55       
S           101.05      10.61       41.2        
H           100.7       11.4        37.63       
H           101.05      13.52       39.17       
C           100.77      11.38       38.74       
C           100.69      10.24       39.52       
C           101.71      20.03       48.78       
N           102.41      18.88       48.89       
C           100.91      20.32       47.67       
C           102.38      18.1        47.79       
C           101.58      18.27       46.58       
C           101.9       17.08       45.75       
C           102.72      16.14       46.64       
N           102.99      16.89       47.78       
C           101.61      16.64       44.49       
C           101.03      17.59       43.42       
N           100.94      16.88       42.25       
C           101.23      15.53       42.49       
C           101.92      13.99       44.2        
C           101.63      15.33       43.84       
C           100.79      19.44       46.55       
O           100.79      18.81       43.44       
O           103.41      15.17       46.4        
C           100.34      17.36       41.03       
C           104.16      16.54       48.66       
H           104.65      17.55       48.93       
H           103.88328   15.95015    49.53385    
H           104.89      15.94       48.07       
H           99.97       18.35       41.18       
H           101.01278   17.4602     40.17828    
H           99.5        16.76       40.87       
H           101.83      11.97       43.44       
H           102.08      13.74       45.23       
H           100.12      19.73       45.81       
H           100.38      21.27       47.61       
C           101.66      13.02       43.21       
N           101.07      14.62       41.55       
C           101.17      13.36       41.97       
C           102.11      21.81       52.24       
C           101.44      22.72       51.41       
S           102.45      20.28       51.44       
H           100.89      22.7        49.23       
H           101.18      23.73       51.66       
C           101.28      22.15       50.08       
C           101.83      20.91       49.88       
C           105.14      23.22       62.55       
N           105.43      24.26       61.75       
C           104.71      21.97       62.17       
C           105.16      24.03       60.5        
C           104.65      22.85       59.95       
C           104.61      22.99       58.5        
C           104.99      24.5        58.33       
N           105.36      24.99       59.52       
C           104.2       22.12       57.45       
C           104.24      20.6        57.56       
N           103.77      20.11       56.32       
C           103.37      21.13       55.48       
C           103.13      23.42       55.45       
C           103.58      22.36       56.14       
C           104.38      21.83       60.84       
O           104.67      19.92       58.42       
O           104.96      25.19       57.32       
C           103.31      18.78       56.11       
C           105.34      26.41       59.83       
H           105.99      26.94       59.12       
H           104.32732   26.8122     59.85873    
H           105.76      26.44       60.77       
H           103.4       18.5        55.11       
H           102.28279   18.68348    56.4616     
H           103.99      18.13       56.66       
H           102.29      24.15       53.57       
H           103.15      24.4        55.87       
H           103.83      20.96       60.43       
H           104.56      21.21       62.98       
C           102.56      23.29       54.17       
N           102.83      20.93       54.29       
C           102.57      22.06       53.61       
C           105.94      23.43       66.3        
C           105.98      24.69       65.73       
S           105.45      22.22       65.17       
H           105.68      25.62       63.77       
H           106.23      25.58       66.23       
C           105.7       24.71       64.36       
C           105.37      23.45       63.93       
C           109.3       20.05       76.45       
N           109.65      21.22       75.89       
C           108.65      19.11       75.68       
C           109.4       21.52       74.62       
C           108.59      20.76       73.76       
C           108.36      21.56       72.51       
C           109.04      22.88       72.91       
N           109.58      22.82       74.13       
C           107.78      21.33       71.33       
C           107.3       19.94       70.87       
N           106.84      20.01       69.58       
C           106.89      21.37       69.1        
C           107.54      23.46       69.68       
C           107.49      22.16       70.11       
C           108.29      19.49       74.36       
O           107.13      19.0        71.56       
O           109.14      23.89       72.25       
C           105.97      19.04       68.94       
C           110.48      23.78       74.79       
H           110.19      23.82       75.84       
H           111.5135    23.462      74.65268    
H           110.25      24.84       74.56       
H           105.94      19.2        67.78       
H           104.95267   19.14173    69.31787    
H           106.41      18.0        69.15       
H           107.17      25.02       68.18       
H           107.74      24.22       70.46       
H           107.72      18.73       73.83       
H           108.41      18.14       76.03       
C           107.06      23.99       68.45       
N           106.51      21.74       67.89       
C           106.56      23.05       67.53       
C           111.4       19.55       79.64       
C           110.25      18.85       79.77       
S           111.47      20.45       78.18       
H           108.38      18.49       78.71       
H           109.98      18.13       80.58       
C           109.39      18.91       78.71       
C           109.9       19.75       77.76       
C           119.94      18.66       86.58       
N           120.06      19.35       85.42       
C           118.88      17.77       86.75       
C           119.01      19.38       84.62       
C           117.83      18.66       84.83       
C           116.94      19.13       83.73       
C           117.8       20.16       82.94       
N           119.06      20.21       83.53       
C           115.63      18.73       83.31       
C           114.86      17.5        83.87       
N           113.65      17.38       83.22       
C           113.53      18.36       82.3        
C           114.69      20.4        81.49       
C           114.65      19.25       82.34       
C           117.81      17.8        85.87       
O           115.14      16.79       84.85       
O           117.57      20.76       81.93       
C           112.56      16.46       83.54       
C           120.07      21.21       83.32       
H           120.97      20.84       83.8        
H           119.922     22.20368    83.74284    
H           120.23      21.29       82.25       
H           111.63      17.04       83.5        
H           112.51038   15.58805    82.88781    
H           112.82      16.1        84.54       
H           113.62      21.3        79.77       
H           115.4       21.19       81.62       
H           117.0       17.09       86.09       
H           118.96      17.11       87.56       
C           113.58      20.49       80.53       
N           112.55      18.49       81.41       
C           112.55      19.51       80.5        
C           123.48      19.03       87.96       
C           122.88      18.17       88.85       
S           122.38      19.81       86.82       
H           120.85      17.28       88.89       
H           123.4       17.52       89.61       
C           121.56      17.95       88.44       
C           121.17      18.64       87.35       
C           132.79      25.02       89.02       
N           132.37      24.2        90.05       
C           132.16      25.01       87.79       
C           131.38      23.36       89.79       
C           130.6       23.26       88.61       
C           129.48      22.27       88.89       
C           129.74      21.86       90.3        
N           130.83      22.6        90.78       
C           128.41      21.8        88.07       
C           128.24      22.05       86.57       
N           127.01      21.48       86.21       
C           126.45      20.78       87.25       
C           126.61      20.43       89.59       
C           127.24      20.91       88.45       
C           131.02      24.15       87.64       
O           128.9       22.76       85.81       
O           129.14      21.07       90.98       
C           126.22      21.86       85.03       
C           131.37      22.45       92.1        
H           132.41      22.47       92.07       
H           130.92553   23.15711    92.80038    
H           131.03      21.46       92.35       
H           125.21      22.29       85.37       
H           126.12663   21.02689    84.33335    
H           126.79      22.69       84.6        
H           124.98      19.35       90.37       
H           126.88      20.73       90.66       
H           130.47      24.33       86.74       
H           132.4       25.63       87.01       
C           125.36      19.75       89.43       
N           125.3       20.12       87.09       
C           124.77      19.57       88.16       
C           135.55      27.39       90.46       
C           135.66      27.32       89.11       
S           134.22      26.39       90.96       
H           134.71      26.46       87.38       
H           136.41      27.82       88.56       
C           134.7       26.55       88.43       
C           133.91      25.85       89.31       
H           76.22       21.36       3.19        
H           136.4       27.58       91.06       
