392

C           75.67       7.74        1.24        
N           75.23       7.83        0.03        
C           75.74       8.79        2.06        
C           74.84       8.99        -0.44       
C           74.87       10.21       0.28        
C           74.28       11.24       -0.62       
C           73.98       10.45       -1.86       
N           74.35       9.15        -1.68       
C           73.87       12.59       -0.47       
C           74.0        13.31       0.9         
N           73.37       14.53       0.76        
C           72.88       14.71       -0.53       
C           72.64       13.78       -2.65       
C           73.16       13.62       -1.35       
C           75.28       10.03       1.63        
O           74.44       12.9        2.0         
O           73.39       10.79       -2.85       
C           73.07       15.35       1.92        
C           74.13       8.1         -2.66       
H           73.61       8.52        -3.5        
H           75.0554     7.65091     -3.02063    
H           73.41       7.38        -2.23       
H           72.12       15.82       1.68        
H           73.82455    16.11853    2.08768     
H           72.93       14.67       2.73        
H           71.64       15.31       -3.91       
H           72.81       13.06       -3.45       
H           75.33       10.9        2.33        
H           76.09       8.6         3.06        
C           72.05       15.07       -2.93       
N           72.27       15.82       -0.76       
C           71.82       16.09       -2.02       
C           76.38       4.26        3.08        
C           76.46       4.06        1.7         
S           76.12       5.97        3.49        
H           76.18       5.15        -0.08       
H           76.59       3.1         1.21        
C           76.25       5.24        0.98        
C           76.09       6.37        1.72        
C           77.42       -2.47       11.96       
N           77.26       -2.99       10.71       
C           77.26       -1.08       12.15       
C           77.06       -2.16       9.74        
C           76.87       -0.74       9.76        
C           76.65       -0.19       8.36        
C           76.47       -1.49       7.58        
N           76.66       -2.55       8.41        
C           76.68       1.05        7.75        
C           76.68       2.36        8.59        
N           76.62       3.42        7.68        
C           76.57       2.99        6.41        
C           76.54       1.04        5.05        
C           76.6        1.53        6.4         
C           77.14       -0.22       11.07       
O           76.64       2.58        9.82        
O           76.34       -1.71       6.37        
C           76.87       4.77        8.07        
C           76.28       -3.91       8.02        
H           76.91       -4.53       8.67        
H           75.22131    -4.09683    8.19991     
H           76.56       -4.12       6.97        
H           76.3        5.49        7.42        
H           77.94266    4.96253     8.04937     
H           76.45       4.91        9.11        
H           76.34       1.52        3.03        
H           76.42       -0.04       4.81        
H           77.04       0.83        11.32       
H           77.13       -0.64       13.16       
C           76.42       1.93        4.01        
N           76.56       3.81        5.38        
C           76.47       3.31        4.15        
C           78.23       -4.12       15.36       
C           77.75       -5.16       14.52       
S           78.31       -2.59       14.45       
H           77.09       -5.24       12.41       
H           77.68       -6.17       14.83       
C           77.41       -4.64       13.23       
C           77.55       -3.32       13.1        
C           84.68       -7.44       23.78       
N           84.65       -6.11       23.47       
C           83.89       -8.35       23.14       
C           83.78       -5.81       22.55       
C           82.86       -6.63       21.81       
C           82.09       -5.76       20.86       
C           82.71       -4.38       21.19       
N           83.63       -4.49       22.21       
C           81.14       -5.94       19.85       
C           80.42       -7.33       19.73       
N           79.66       -7.28       18.57       
C           79.67       -5.99       18.03       
C           80.57       -3.75       18.32       
C           80.52       -5.1        18.8        
C           82.96       -7.98       22.13       
O           80.57       -8.34       20.33       
O           82.66       -3.3        20.76       
C           78.69       -8.28       18.22       
C           84.36       -3.39       22.82       
H           84.42       -2.58       22.16       
H           83.97236    -3.08694    23.79262    
H           85.36       -3.77       22.94       
H           77.77       -7.89       17.78       
H           79.03558    -9.04874    17.52884    
H           78.26       -8.64       19.2        
H           79.84       -2.42       16.89       
H           81.15       -3.02       18.87       
H           82.43       -8.74       21.57       
H           83.96       -9.46       23.38       
C           79.87       -3.44       17.13       
N           78.91       -5.61       17.03       
C           78.96       -4.35       16.58       
C           87.2        -7.86       26.75       
C           87.17       -9.04       26.09       
S           86.2        -6.67       25.97       
H           86.09       -9.99       24.34       
H           87.78       -9.92       26.39       
C           86.25       -9.11       25.02       
C           85.64       -7.86       24.81       
C           93.51       -5.74       35.62       
N           92.89       -4.77       34.89       
C           93.44       -7.11       35.22       
C           92.19       -5.12       33.84       
C           92.02       -6.44       33.24       
C           91.17       -6.32       32.03       
C           91.17       -4.83       31.84       
N           91.68       -4.22       32.94       
C           90.56       -7.25       31.28       
C           90.75       -8.77       31.3        
N           90.05       -9.3        30.19       
C           89.42       -8.26       29.49       
C           88.86       -5.96       29.61       
C           89.68       -6.95       30.14       
C           92.61       -7.44       34.14       
O           91.48       -9.45       32.04       
O           90.55       -4.08       31.09       
C           89.91       -10.72      29.79       
C           91.61       -2.78       33.14       
H           91.75       -2.22       32.26       
H           90.72736    -2.47178    33.7004     
H           92.46       -2.53       33.81       
H           89.15       -10.83      29.07       
H           90.87397    -11.08324   29.43375    
H           89.61       -11.35      30.68       
H           87.53       -5.32       27.99       
H           88.76       -5.04       30.07       
H           92.43       -8.48       33.89       
H           94.0        -7.85       35.76       
C           88.11       -6.18       28.44       
N           88.72       -8.55       28.39       
C           88.0        -7.52       27.89       
C           95.21       -3.99       38.68       
C           95.44       -5.32       38.83       
S           94.22       -3.66       37.29       
H           94.71       -7.13       37.83       
H           95.98       -5.74       39.64       
C           94.79       -6.07       37.83       
C           94.23       -5.34       36.81       
C           98.27       5.58        43.55       
N           98.73       4.4         43.94       
C           97.48       5.64        42.4        
C           98.28       3.3         43.35       
C           97.41       3.2         42.22       
C           97.23       1.76        41.96       
C           98.17       1.08        42.93       
N           98.7        2.04        43.8        
C           96.5        0.96        41.01       
C           95.54       1.58        40.05       
N           95.05       0.6         39.22       
C           95.53       -0.65       39.54       
C           96.83       -1.7        41.24       
C           96.36       -0.52       40.7        
C           97.07       4.49        41.74       
O           95.25       2.73        39.87       
O           98.58       0.0         43.01       
C           94.16       0.94        38.11       
C           99.74       1.86        44.73       
H           100.43      2.67        44.75       
H           99.37671    1.63476     45.73269    
H           100.42      1.07        44.29       
H           93.51       0.12        37.99       
H           94.69663    1.14794     37.18432    
H           93.49       1.7         38.41       
H           96.72       -3.82       41.01       
H           97.26       -1.78       42.19       
H           96.41       4.63        40.9        
H           97.11       6.54        41.98       
C           96.37       -2.87       40.63       
N           95.12       -1.71       38.87       
C           95.61       -2.85       39.47       
C           99.6        8.14        46.28       
C           99.02       8.85        45.24       
S           99.56       6.44        45.86       
H           98.0        8.32        43.28       
H           98.79       9.88        45.32       
C           98.49       8.0         44.15       
C           98.73       6.68        44.38       
C           101.4       12.09       56.53       
N           101.94      10.96       56.19       
C           100.56      12.76       55.73       
C           101.8       10.5        54.94       
C           101.03      11.16       53.94       
C           101.12      10.32       52.68       
C           102.0       9.17        53.11       
N           102.34      9.34        54.42       
C           100.51      10.41       51.43       
C           99.68       11.59       50.99       
N           99.29       11.43       49.65       
C           99.78       10.25       49.17       
C           100.87      8.27        49.83       
C           100.38      9.54        50.23       
C           100.36      12.33       54.42       
O           99.33       12.64       51.55       
O           102.44      8.21        52.44       
C           99.02       12.56       48.72       
C           103.34      8.56        55.17       
H           103.96      9.24        55.78       
H           102.85679   7.90872     55.89831    
H           103.98      8.08        54.51       
H           99.48       12.32       47.77       
H           97.98876    12.78673    48.44939    
H           99.54       13.42       49.09       
H           100.89      6.8         48.31       
H           101.3       7.62        50.55       
H           99.69       12.85       53.78       
H           100.06      13.66       56.09       
C           100.58      7.79        48.57       
N           99.59       9.82        47.95       
C           99.9        8.57        47.64       
C           102.3       12.8        60.3        
C           102.05      13.98       59.73       
S           102.13      11.53       59.11       
H           101.46      14.77       57.75       
H           102.18      14.94       60.27       
C           101.63      13.92       58.36       
C           101.59      12.64       57.89       
C           108.68      9.72        68.77       
N           108.24      11.0        68.7        
C           108.34      8.77        67.78       
C           107.35      11.19       67.78       
C           106.86      10.36       66.75       
C           105.96      11.22       65.87       
C           106.17      12.66       66.39       
N           107.0       12.58       67.48       
C           105.15      10.94       64.75       
C           104.89      9.53        64.28       
N           104.01      9.6         63.18       
C           103.78      10.91       62.87       
C           103.97      13.17       63.63       
C           104.34      11.8        63.8        
C           107.38      9.08        66.81       
O           105.44      8.53        64.62       
O           105.97      13.77       66.0        
C           103.29      8.41        62.82       
C           107.19      13.63       68.38       
H           107.33      14.51       67.77       
H           106.40166   13.7683     69.11993    
H           108.13      13.5        68.85       
H           102.94      8.37        61.77       
H           102.55079   8.1014      63.55921    
H           103.99      7.58        62.75       
H           102.89      14.49       62.35       
H           104.34      13.94       64.23       
H           107.29      8.4         65.96       
H           108.73      7.77        67.8        
C           103.12      13.47       62.56       
N           103.11      11.2        61.78       
C           102.86      12.51       61.6        
C           110.4       9.52        72.22       
C           110.59      8.29        71.71       
S           109.68      10.62       71.12       
H           110.15      7.37        69.84       
H           110.98      7.37        72.2        
C           110.04      8.27        70.38       
C           109.5       9.42        69.91       
C           114.24      13.3        81.84       
N           113.46      14.13       81.11       
C           114.64      12.04       81.39       
C           113.04      13.61       79.96       
C           113.36      12.34       79.32       
C           112.74      12.32       78.0        
C           112.05      13.66       77.9        
N           112.28      14.34       79.07       
C           112.57      11.29       77.03       
C           113.01      9.83        77.23       
N           112.68      9.03        76.23       
C           111.97      9.82        75.33       
C           111.04      11.94       74.96       
C           111.85      11.17       75.75       
C           114.19      11.56       80.1        
O           113.89      9.36        78.0        
O           111.31      14.12       77.04       
C           112.42      7.58        76.39       
C           111.46      15.48       79.48       
H           111.21      15.53       80.59       
H           111.94524   16.41582    79.20272    
H           110.46      15.33       78.94       
H           112.38      7.07        75.41       
H           111.48611   7.43029     76.9318     
H           113.25      7.18        76.94       
H           109.98      12.14       73.14       
H           110.88      12.99       75.17       
H           114.51      10.53       79.82       
H           115.11      11.37       82.06       
C           110.48      11.45       73.82       
N           111.51      9.3         74.24       
C           110.7       10.1        73.49       
C           115.29      14.0        85.62       
C           114.88      15.22       85.05       
S           115.24      12.79       84.38       
H           114.2       15.96       83.08       
H           114.76      16.11       85.67       
C           114.52      15.11       83.68       
C           114.57      13.85       83.17       
C           118.71      11.14       95.64       
N           118.98      12.37       95.16       
C           118.2       10.17       94.79       
C           118.75      12.68       93.88       
C           118.22      11.72       92.9        
C           118.02      12.5        91.69       
C           118.52      13.88       92.03       
N           118.99      13.91       93.32       
C           117.48      12.16       90.43       
C           117.21      10.74       90.0        
N           116.48      10.78       88.75       
C           116.32      12.09       88.41       
C           116.74      14.34       89.07       
C           116.97      12.96       89.36       
C           117.95      10.4        93.42       
O           117.53      9.68        90.49       
O           118.75      14.83       91.24       
C           115.69      9.64        88.28       
C           119.54      15.05       93.98       
H           120.38      14.71       94.58       
H           118.82644   15.52571    94.65278    
H           119.92      15.63       93.17       
H           114.75      10.05       87.77       
H           116.25141   9.07139     87.53865    
H           115.38      9.05        89.13       
H           116.06      15.64       87.52       
H           117.15      15.13       89.6        
H           117.38      9.71        92.87       
H           117.95      9.16        95.14       
C           116.12      14.63       87.83       
N           115.72      12.35       87.21       
C           115.73      13.67       86.93       
C           119.66      11.2        99.4        
C           119.53      9.88        99.08       
S           119.17      12.27       98.1        
H           119.07      8.78        97.19       
H           119.82      9.08        99.77       
C           119.07      9.74        97.76       
C           119.03      10.91       97.06       
C           122.44      17.14       108.46      
N           122.39      15.8        108.62      
C           122.24      17.77       107.21      
C           122.14      15.15       107.47      
C           121.87      15.59       106.19      
C           121.62      14.44       105.3       
C           121.69      13.31       106.29      
N           121.95      13.78       107.55      
C           121.36      14.33       103.95      
C           121.56      15.44       102.95      
N           121.16      14.98       101.7       
C           120.78      13.7        101.72      
C           120.77      11.83       102.95      
C           121.0       13.23       102.97      
C           121.93      16.99       106.11      
O           121.69      16.63       103.09      
O           121.55      12.06       106.12      
C           121.51      15.65       100.41      
C           122.27      12.96       108.66      
H           122.89      13.41       109.35      
H           121.36868   12.5856     109.14533   
H           122.85      12.18       108.19      
H           120.77      15.37       99.63       
H           122.54477   15.4824     100.11123   
H           121.37      16.74       100.6       
H           120.43      10.06       101.84      
H           120.9       11.32       103.89      
H           121.71      17.4        105.22      
H           122.15      18.88       107.08      
C           120.4       11.1        101.81      
N           120.24      13.11       100.6       
C           120.05      11.76       100.65      
C           122.91      19.24       111.84      
C           122.14      18.16       112.06      
S           123.48      19.18       110.18      
H           121.17      16.47       110.99      
H           121.66      18.0        113.04      
C           121.9       17.31       110.93      
C           122.42      17.83       109.77      
H           71.47       17.09       -2.33       
H           122.88      20.15       112.42      
