392

C           79.81       30.21       35.07       
N           79.94       29.83       33.8        
C           80.36       31.37       35.61       
C           80.73       30.61       33.07       
C           81.38       31.8        33.49       
C           82.03       32.45       32.32       
C           81.79       31.42       31.22       
N           80.93       30.35       31.7        
C           82.79       33.58       32.19       
C           83.48       34.29       33.35       
N           84.32       35.3        32.9        
C           84.24       35.33       31.53       
C           83.27       34.22       29.63       
C           83.35       34.27       31.05       
C           81.14       32.21       34.81       
O           83.35       34.04       34.54       
O           82.19       31.4        30.09       
C           85.34       35.84       33.83       
C           80.5        29.15       30.98       
H           80.5        29.35       29.91       
H           81.22538    28.33844    31.03746    
H           79.55       28.72       31.33       
H           85.68       36.78       33.42       
H           86.06375    35.03664    33.96751    
H           84.8        36.16       34.73       
H           83.87       35.17       27.75       
H           82.81       33.36       29.12       
H           81.45       33.12       35.27       
H           80.11       31.7        36.6        
C           83.97       35.21       28.88       
N           84.8        36.26       30.79       
C           84.78       36.22       29.45       
C           78.2        27.47       37.44       
C           77.75       27.24       36.15       
S           79.2        28.91       37.42       
H           78.09       28.29       34.16       
H           77.18       26.36       35.85       
C           78.21       28.27       35.22       
C           78.98       29.26       35.76       
C           79.19       21.9        46.75       
N           78.45       21.37       45.78       
C           79.83       23.13       46.58       
C           78.35       22.06       44.7        
C           78.82       23.39       44.48       
C           78.39       23.77       43.11       
C           77.69       22.54       42.62       
N           77.58       21.58       43.62       
C           78.41       24.97       42.39       
C           78.63       26.33       43.09       
N           78.59       27.28       42.07       
C           78.42       26.67       40.86       
C           78.17       24.56       39.73       
C           78.31       25.27       40.94       
C           79.46       23.94       45.52       
O           78.55       26.67       44.26       
O           77.13       22.34       41.52       
C           78.98       28.66       42.24       
C           76.97       20.29       43.44       
H           76.33       20.33       42.55       
H           77.68437    19.50694    43.18585    
H           76.42       20.22       44.41       
H           78.58       29.3        41.36       
H           80.05144    28.84449    42.16195    
H           78.65       29.05       43.21       
H           78.04       24.74       37.61       
H           78.17       23.46       39.72       
H           79.82       24.97       45.47       
H           80.57       23.49       47.38       
C           78.08       25.27       38.55       
N           78.39       27.31       39.7        
C           78.12       26.64       38.64       
C           79.1        20.47       50.39       
C           78.19       19.78       49.68       
S           80.02       21.57       49.46       
H           77.65       19.56       47.56       
H           77.59       19.0        50.11       
C           78.23       20.15       48.29       
C           79.05       21.18       48.05       
C           79.7        17.34       61.09       
N           80.16       18.54       60.68       
C           78.89       16.52       60.26       
C           79.8        18.92       59.47       
C           79.09       18.22       58.46       
C           79.25       19.06       57.21       
C           80.12       20.23       57.62       
N           80.23       20.19       59.04       
C           79.02       18.8        55.84       
C           77.94       17.77       55.43       
N           77.66       17.99       54.1        
C           78.48       18.98       53.55       
C           80.33       20.36       53.96       
C           79.33       19.51       54.56       
C           78.61       17.01       58.96       
O           77.18       17.02       56.15       
O           80.53       21.13       56.92       
C           77.06       16.92       53.31       
C           80.86       21.19       59.93       
H           81.94       21.15       60.18       
H           80.6088     22.23173    59.73052    
H           80.38       21.04       60.92       
H           76.85       17.22       52.3        
H           77.67445    16.02305    53.23231    
H           76.09       16.7        53.74       
H           80.89       21.59       52.28       
H           81.07       20.78       54.61       
H           78.06       16.38       58.3        
H           78.61       15.46       60.61       
C           80.18       20.8        52.63       
N           78.49       19.29       52.28       
C           79.31       20.21       51.82       
C           81.13       17.4        64.75       
C           80.42       16.27       64.61       
S           80.94       18.29       63.3        
H           79.22       15.17       62.93       
H           80.43       15.53       65.41       
C           79.85       16.02       63.27       
C           80.1        17.08       62.43       
C           86.36       18.67       74.35       
N           86.55       19.6        73.32       
C           85.71       17.48       74.13       
C           86.05       19.28       72.14       
C           85.19       18.22       71.8        
C           84.71       18.46       70.42       
C           85.51       19.67       70.05       
N           86.18       20.18       71.13       
C           83.73       17.88       69.66       
C           82.78       16.8        70.24       
N           81.82       16.54       69.26       
C           82.23       17.13       68.06       
C           83.82       18.62       67.07       
C           83.32       17.98       68.25       
C           85.09       17.27       72.86       
O           82.65       16.39       71.36       
O           85.57       20.23       68.98       
C           80.64       15.75       69.45       
C           87.29       21.09       70.96       
H           87.72       21.02       69.94       
H           86.97416    22.12175    71.11441    
H           87.95       20.87       71.69       
H           79.84       16.16       68.89       
H           80.74365    14.70613    69.15387    
H           80.35       15.75       70.47       
H           83.33       19.13       65.04       
H           84.74       19.11       67.12       
H           84.63       16.34       72.62       
H           85.59       16.7        74.89       
C           83.01       18.59       65.96       
N           81.46       17.09       66.98       
C           81.83       17.85       65.94       
C           87.76       20.5        77.49       
C           87.24       19.33       77.91       
S           87.46       20.73       75.76       
H           85.9        17.67       76.97       
H           87.38       19.01       78.94       
C           86.57       18.57       76.88       
C           86.79       19.15       75.66       
C           93.9        28.53       82.0        
N           93.04       27.88       82.92       
C           93.71       28.36       80.6        
C           92.23       26.94       82.39       
C           92.07       26.67       80.99       
C           91.16       25.51       80.86       
C           90.79       25.15       82.29       
N           91.52       25.98       83.06       
C           90.64       24.77       79.73       
C           90.71       25.37       78.31       
N           90.01       24.51       77.47       
C           89.42       23.49       78.19       
C           89.21       22.45       80.31       
C           89.71       23.56       79.59       
C           92.84       27.44       80.1        
O           91.1        26.39       77.81       
O           90.12       24.21       82.76       
C           90.25       24.49       76.01       
C           91.32       26.0        84.49       
H           90.29       25.7        84.71       
H           92.04404    25.38039    85.0191     
H           91.48       27.03       84.82       
H           89.33       24.25       75.46       
H           91.07884    23.84225    75.72443    
H           90.42       25.55       75.74       
H           88.13       20.56       80.14       
H           89.44       22.34       81.37       
H           92.77       27.31       79.05       
H           94.21       29.08       79.93       
C           88.54       21.42       79.63       
N           88.62       22.62       77.54       
C           88.29       21.56       78.28       
C           96.49       30.36       84.19       
C           96.78       30.73       82.93       
S           95.01       29.39       84.29       
H           96.21       30.08       80.92       
H           97.59       31.36       82.69       
C           95.94       30.04       81.96       
C           94.93       29.34       82.59       
C           100.25      35.23       93.33       
N           99.53       34.1        93.43       
C           100.79      35.59       92.11       
C           99.24       33.4        92.35       
C           99.69       33.65       91.01       
C           99.09       32.61       90.1        
C           98.17       31.87       91.04       
N           98.46       32.29       92.32       
C           99.22       32.44       88.73       
C           100.31      32.98       87.77       
N           100.0       32.68       86.47       
C           98.81       31.91       86.42       
C           97.08       31.09       87.89       
C           98.36       31.74       87.76       
C           100.6       34.74       90.97       
O           101.28      33.54       88.12       
O           97.56       30.81       90.94       
C           100.61      33.3        85.31       
C           97.85       31.73       93.52       
H           96.88       31.28       93.26       
H           98.52867    31.01599    93.98658    
H           97.54       32.48       94.25       
H           100.95      34.2        85.6        
H           101.37842   32.66803    84.86475    
H           99.8        33.55       84.58       
H           95.41       30.3        86.68       
H           96.5        30.98       88.87       
H           100.88      35.17       89.98       
H           101.42      36.49       92.0        
C           96.42       30.78       86.65       
N           98.24       31.46       85.33       
C           97.09       30.82       85.44       
C           100.38      37.11       96.8        
C           100.95      37.87       95.81       
S           100.04      35.54       96.08       
H           101.44      37.9        93.66       
H           101.17      38.91       95.91       
C           101.09      37.3        94.52       
C           100.5       36.05       94.48       
C           99.57       39.1        107.78      
N           99.2        40.06       106.94      
C           99.99       37.83       107.33      
C           99.27       39.83       105.63      
C           99.59       38.56       105.05      
C           99.48       38.77       103.58      
C           99.05       40.21       103.41      
N           98.91       40.8        104.65      
C           99.62       37.93       102.44      
C           99.6        36.44       102.59      
N           99.73       35.8        101.34      
C           99.84       36.76       100.3       
C           99.98       39.07       99.97       
C           99.78       38.06       100.93      
C           99.88       37.55       105.98      
O           99.51       35.88       103.62      
O           98.85       40.8        102.31      
C           100.11      34.42       101.24      
C           98.89       42.25       104.75      
H           97.99       42.57       105.35      
H           99.72119    42.65529    105.32703   
H           98.72       42.8        103.78      
H           100.84      34.23       100.42      
H           99.24121    33.78097    101.08204   
H           100.54      34.05       102.23      
H           100.19      39.61       97.99       
H           99.88       40.12       100.22      
H           99.92       36.55       105.73      
H           100.34      37.06       107.94      
C           100.2       38.76       98.64       
N           100.05      36.4        99.04       
C           100.24      37.44       98.22       
C           100.05      40.84       111.33      
C           100.28      39.48       111.48      
S           99.5        41.21       109.76      
H           100.17      37.72       110.21      
H           100.55      38.91       112.38      
C           100.01      38.78       110.31      
C           99.68       39.54       109.2       
C           103.24      47.47       119.57      
N           102.07      47.76       118.98      
C           104.03      46.39       119.28      
C           101.74      46.97       117.93      
C           102.46      45.87       117.5       
C           101.69      45.25       116.36      
C           100.53      46.26       116.16      
N           100.6       47.19       117.14      
C           101.71      44.06       115.65      
C           102.78      43.01       115.88      
N           102.58      42.01       115.01      
C           101.55      42.3        114.18      
C           100.13      43.95       113.41      
C           101.04      43.6        114.39      
C           103.64      45.52       118.25      
O           103.58      42.91       116.79      
O           99.49       46.15       115.54      
C           103.32      40.78       115.03      
C           99.49       48.11       117.52      
H           99.27       48.09       118.58      
H           99.77388    49.14168    117.31228   
H           98.62       47.8        116.99      
H           103.6       40.48       114.01      
H           102.76778   39.97291    115.51142   
H           104.25      40.96       115.57      
H           98.97       43.47       111.63      
H           99.73       44.95       113.31      
H           104.4       44.84       117.86      
H           104.96      46.21       119.75      
C           99.75       43.07       112.39      
N           101.24      41.45       113.18      
C           100.37      41.87       112.29      
C           105.04      49.6        122.2       
C           104.18      50.47       121.56      
S           105.08      47.99       121.55      
H           102.59      50.27       120.02      
H           104.12      51.48       121.76      
C           103.4       49.75       120.54      
C           103.72      48.45       120.5       
C           110.76      50.24       131.64      
N           110.43      51.34       130.9       
C           110.43      49.0        131.12      
C           109.9       51.21       129.73      
C           109.55      49.99       129.1       
C           108.95      50.31       127.75      
C           109.31      51.76       127.65      
N           109.82      52.23       128.8       
C           108.37      49.58       126.72      
C           108.44      48.05       126.56      
N           107.8       47.64       125.4       
C           107.3       48.8        124.84      
C           107.19      51.19       124.93      
C           107.66      50.02       125.53      
C           109.76      48.88       129.88      
O           108.97      47.32       127.29      
O           109.18      52.55       126.75      
C           107.57      46.26       125.05      
C           110.48      53.53       129.04      
H           111.46      53.4        129.45      
H           109.94258   54.12325    129.77982   
H           110.54      54.07       128.09      
H           106.59      46.17       124.53      
H           108.41463   45.86295    124.48692   
H           107.49      45.83       126.07      
H           105.87      51.95       123.37      
H           107.53      52.17       125.22      
H           109.39      47.93       129.58      
H           110.68      48.05       131.71      
C           106.29      51.04       123.84      
N           106.48      48.67       123.77      
C           105.94      49.8        123.32      
C           111.83      50.44       135.53      
C           112.4       51.45       134.83      
S           110.86      49.54       134.4       
H           112.62      52.2        132.81      
H           112.98      52.23       135.3       
C           112.15      51.47       133.46      
C           111.33      50.45       133.02      
C           110.98      49.36       146.53      
N           109.96      48.9        145.74      
C           112.03      50.06       145.99      
C           110.01      49.17       144.39      
C           111.04      49.87       143.73      
C           110.84      49.74       142.3       
C           109.52      48.93       142.19      
N           109.05      48.77       143.53      
C           111.52      50.21       141.18      
C           112.66      51.27       141.27      
N           113.02      51.59       140.0       
C           112.35      50.79       139.09      
C           110.66      49.11       138.83      
C           111.36      49.9        139.73      
C           112.0       50.44       144.64      
O           113.32      51.73       142.18      
O           108.76      48.78       141.23      
C           113.71      52.84       139.7       
C           108.07      47.78       143.78      
H           107.33      47.89       143.01      
H           108.48923   46.77385    143.78      
H           107.68      47.87       144.78      
H           113.12      53.36       138.95      
H           114.76454   52.78592    139.4296    
H           113.63      53.42       140.61      
H           110.29      48.67       136.74      
H           109.94      48.42       139.18      
H           112.83      50.96       144.26      
H           112.88      50.23       146.61      
C           110.89      49.26       137.45      
N           112.55      50.94       137.78      
C           111.78      50.19       136.96      
C           110.25      48.46       150.3       
C           111.63      48.68       150.18      
S           109.48      48.79       148.76      
H           113.11      48.89       148.51      
H           112.18      48.64       151.04      
C           112.05      48.83       148.78      
C           110.99      49.01       147.93      
H           85.29       36.94       28.73       
H           109.77      47.72       150.97      
