392

C           80.08       27.82       38.38       
N           80.72       27.77       37.19       
C           79.73       29.05       38.93       
C           81.0        29.01       36.66       
C           80.71       30.3        37.13       
C           81.29       31.33       36.2        
C           81.7        30.41       35.02       
N           81.53       29.09       35.43       
C           81.35       32.73       36.14       
C           80.68       33.75       37.06       
N           81.07       35.04       36.76       
C           81.96       34.91       35.73       
C           83.07       33.57       34.23       
C           82.11       33.66       35.27       
C           80.08       30.33       38.37       
O           79.82       33.52       37.84       
O           82.15       30.64       33.9        
C           80.48       36.2        37.41       
C           81.4        28.12       34.36       
H           81.11       28.62       33.44       
H           82.32882    27.57363    34.19609    
H           80.56       27.45       34.59       
H           80.25       36.99       36.68       
H           81.10167    36.53847    38.23889    
H           79.53       35.83       37.83       
H           84.31       34.57       32.86       
H           83.5        32.66       33.91       
H           79.9        31.28       38.92       
H           79.07       29.01       39.81       
C           83.63       34.67       33.68       
N           82.44       36.04       35.15       
C           83.29       36.0        34.14       
C           78.52       24.74       40.1        
C           78.54       24.49       38.8        
S           79.04       26.41       40.51       
H           79.51       25.47       37.03       
H           78.21       23.59       38.36       
C           79.11       25.54       38.09       
C           79.5        26.6        38.83       
C           76.02       19.25       49.44       
N           75.42       18.93       48.25       
C           76.96       20.3        49.59       
C           75.9        19.48       47.15       
C           76.81       20.61       47.09       
C           76.88       21.0        45.59       
C           75.91       20.08       44.91       
N           75.37       19.24       45.89       
C           77.5        21.99       44.93       
C           78.55       22.92       45.6        
N           79.1        23.68       44.58       
C           78.44       23.47       43.43       
C           76.64       22.34       42.33       
C           77.37       22.5        43.53       
C           77.28       21.01       48.39       
O           78.83       23.05       46.77       
O           75.67       19.94       43.73       
C           80.29       24.53       44.79       
C           74.49       18.09       45.64       
H           73.85       18.31       44.77       
H           75.01793    17.15069    45.47545    
H           73.79       18.0        46.43       
H           80.13       25.53       44.36       
H           81.14453    24.13075    44.24366    
H           80.57       24.52       45.86       
H           76.4        22.83       40.25       
H           75.8        21.66       42.33       
H           77.99       21.8        48.46       
H           77.2        20.64       50.58       
C           76.94       23.06       41.17       
N           78.71       24.15       42.3        
C           78.03       23.93       41.2        
C           75.23       17.39       52.9        
C           74.23       17.15       52.07       
S           76.4        18.37       52.11       
H           73.67       17.67       49.98       
H           73.34       16.66       52.39       
C           74.37       17.81       50.77       
C           75.49       18.55       50.65       
C           77.96       11.54       61.77       
N           78.88       12.32       61.22       
C           76.73       11.28       61.24       
C           78.57       12.9        60.11       
C           77.32       12.85       59.44       
C           77.36       13.79       58.27       
C           78.79       14.39       58.36       
N           79.43       13.86       59.42       
C           76.48       14.12       57.3        
C           75.32       13.27       56.87       
N           74.73       13.87       55.75       
C           75.35       15.03       55.46       
C           76.9        16.57       56.23       
C           76.39       15.29       56.4        
C           76.36       12.0        60.05       
O           74.82       12.19       57.29       
O           79.33       15.1        57.55       
C           73.5        13.44       55.31       
C           80.85       13.83       59.63       
H           81.21       13.68       58.67       
H           81.18057    14.74266    60.12586    
H           81.16       12.93       60.12       
H           72.78       14.27       55.18       
H           73.56293    12.85262    54.39396    
H           73.13       12.79       56.08       
H           76.97       18.24       54.87       
H           77.66       17.02       56.92       
H           75.33       11.97       59.68       
H           75.99       10.58       61.67       
C           76.59       17.27       55.04       
N           75.0        15.71       54.4        
C           75.53       16.88       54.16       
C           79.52       10.08       65.09       
C           78.48       9.28        64.8        
S           79.83       11.23       63.82       
H           76.71       9.48        63.47       
H           78.09       8.51        65.45       
C           77.72       9.85        63.71       
C           78.37       10.83       63.0        
C           84.91       10.89       74.76       
N           85.57       11.35       73.68       
C           83.67       10.24       74.72       
C           84.9        11.18       72.53       
C           83.71       10.5        72.26       
C           83.47       10.5        70.79       
C           84.57       11.37       70.26       
N           85.4        11.68       71.33       
C           82.48       10.01       70.01       
C           81.5        8.95        70.5        
N           80.65       8.61        69.46       
C           80.8        9.46        68.41       
C           82.17       11.14       67.56       
C           81.91       10.27       68.63       
C           83.14       9.96        73.45       
O           81.41       8.32        71.51       
O           84.81       11.62       69.07       
C           79.73       7.45        69.6        
C           86.67       12.27       71.16       
H           86.97       11.99       70.16       
H           86.69757    13.35887    71.20135    
H           87.51       11.83       71.74       
H           80.04       6.73        70.28       
H           78.69561    7.76665     69.7337     
H           79.83       6.88        68.68       
H           81.62       11.86       65.67       
H           82.92       11.89       67.7        
H           82.17       9.4         73.34       
H           83.28       9.88        75.65       
C           81.43       11.11       66.38       
N           80.07       9.35        67.29       
C           80.43       10.16       66.25       
C           87.59       12.05       77.27       
C           86.72       11.37       77.98       
S           87.27       11.85       75.58       
H           84.67       10.47       77.77       
H           86.83       11.35       79.04       
C           85.59       10.82       77.29       
C           85.7        11.1        75.93       
C           95.04       19.99       79.89       
N           93.81       20.04       80.44       
C           95.38       19.07       78.93       
C           93.02       19.01       80.07       
C           93.24       17.96       79.09       
C           91.97       17.19       78.97       
C           91.0        17.88       79.92       
N           91.71       18.88       80.58       
C           91.46       16.04       78.31       
C           92.35       15.43       77.25       
N           91.65       14.32       76.79       
C           90.42       14.15       77.45       
C           89.0        15.04       79.1        
C           90.23       15.22       78.35       
C           94.51       18.05       78.5        
O           93.34       15.85       76.68       
O           89.78       17.71       80.19       
C           92.16       13.42       75.71       
C           91.11       19.71       81.58       
H           90.05       19.96       81.3        
H           91.15328    19.28445    82.58256    
H           91.55       20.65       81.5        
H           91.35       13.16       74.99       
H           92.70316    12.54809    76.07449    
H           92.84       14.03       75.08       
H           87.12       13.81       79.28       
H           88.71       15.78       79.84       
H           94.83       17.55       77.57       
H           96.33       19.1        78.37       
C           88.12       13.95       78.78       
N           89.6        13.23       77.07       
C           88.5        13.06       77.81       
C           96.34       23.53       81.01       
C           97.15       23.05       80.04       
S           95.04       22.39       81.29       
H           97.42       21.2        78.89       
H           97.96       23.63       79.72       
C           96.88       21.69       79.64       
C           95.75       21.17       80.23       
C           96.7        33.72       85.73       
N           95.92       32.67       86.16       
C           97.59       33.53       84.65       
C           95.91       31.54       85.51       
C           96.65       31.21       84.4        
C           96.36       29.79       84.06       
C           95.28       29.39       85.15       
N           95.17       30.4        86.03       
C           96.8        28.87       83.08       
C           97.81       29.15       82.06       
N           98.0        28.04       81.29       
C           97.15       27.01       81.62       
C           95.59       26.39       83.27       
C           96.4        27.45       82.74       
C           97.49       32.26       83.93       
O           98.23       30.26       81.81       
O           94.74       28.36       85.28       
C           98.83       28.13       80.12       
C           94.3        30.5        87.21       
H           93.35       29.95       87.07       
H           94.84891    30.03663    88.02981    
H           94.05       31.56       87.38       
H           99.04       29.21       79.99       
H           99.82156    27.67733    80.12       
H           98.26       27.79       79.27       
H           94.93       24.34       83.27       
H           95.03       26.55       84.16       
H           98.09       32.1        83.09       
H           98.34       34.32       84.43       
C           95.57       25.06       82.75       
N           97.1        25.78       81.12       
C           96.38       24.79       81.7        
C           96.5        36.22       88.53       
C           97.05       36.89       87.48       
S           95.91       34.64       88.15       
H           97.49       36.27       85.3        
H           97.39       37.96       87.46       
C           97.14       36.02       86.37       
C           96.6        34.83       86.55       
C           100.08      37.54       98.72       
N           99.77       38.66       97.98       
C           99.7        36.28       98.26       
C           99.1        38.47       96.85       
C           98.67       37.2        96.3        
C           97.95       37.52       95.06       
C           98.12       39.07       94.99       
N           98.62       39.52       96.14       
C           97.37       36.7        94.03       
C           97.1        35.23       94.16       
N           96.57       34.8        92.97       
C           96.58       35.8        92.02       
C           97.21       38.03       91.66       
C           97.02       36.98       92.61       
C           99.02       36.12       97.07       
O           97.45       34.38       94.96       
O           97.72       39.8        94.1        
C           96.09       33.46       92.65       
C           98.63       40.95       96.49       
H           98.69       41.04       97.59       
H           99.512      41.5139     96.18636    
H           97.72       41.33       96.06       
H           96.33       33.16       91.64       
H           95.02814    33.43772    92.89505    
H           96.58       32.74       93.33       
H           97.12       38.57       89.46       
H           97.57       38.96       91.99       
H           98.65       35.14       96.85       
H           99.88       35.34       98.85       
C           97.06       37.82       90.25       
N           96.36       35.57       90.71       
C           96.56       36.59       89.89       
C           101.67      38.89       102.03      
C           101.99      37.55       101.96      
S           100.89      39.35       100.61      
H           101.33      35.78       100.65      
H           102.46      36.96       102.75      
C           101.37      36.9        100.79      
C           100.74      37.78       99.95       
C           104.66      43.99       111.31      
N           104.11      44.8        110.4       
C           104.7       42.61       111.07      
C           103.65      44.22       109.29      
C           103.83      42.9        108.86      
C           103.37      42.74       107.46      
C           102.81      44.12       107.15      
N           103.07      44.96       108.25      
C           103.5       41.64       106.64      
C           104.57      40.53       106.86      
N           104.38      39.65       105.81      
C           103.35      39.99       104.94      
C           101.85      41.72       104.52      
C           102.81      41.22       105.38      
C           104.34      42.07       109.86      
O           105.5       40.5        107.65      
O           102.23      44.5        106.14      
C           105.14      38.41       105.83      
C           102.34      46.22       108.49      
H           101.79      46.12       109.42      
H           102.95749   47.11751    108.4541    
H           101.58      46.17       107.77      
H           105.24      37.99       104.76      
H           104.7004    37.61728    106.43535   
H           106.22      38.59       106.09      
H           100.69      41.34       102.72      
H           101.31      42.6        104.76      
H           104.38      41.0        109.72      
H           105.18      42.01       111.81      
C           101.4       40.96       103.43      
N           102.93      39.24       103.89      
C           101.96      39.78       103.1       
C           105.91      46.26       114.27      
C           105.71      45.0        114.76      
S           105.66      46.32       112.55      
H           104.65      43.11       113.93      
H           105.85      44.65       115.81      
C           105.24      44.04       113.76      
C           105.14      44.64       112.52      
C           111.55      52.49       121.17      
N           111.58      52.72       119.83      
C           110.78      51.44       121.69      
C           110.76      52.11       119.1       
C           109.87      51.07       119.53      
C           109.25      50.58       118.25      
C           109.96      51.41       117.19      
N           110.92      52.22       117.78      
C           108.28      49.6        117.94      
C           107.57      48.85       119.04      
N           106.83      47.82       118.47      
C           106.96      47.94       117.06      
C           107.64      49.39       115.32      
C           107.72      49.11       116.67      
C           109.84      50.76       120.89      
O           107.55      48.86       120.29      
O           109.74      51.47       116.01      
C           106.02      46.73       119.1       
C           111.73      53.15       117.08      
H           112.73      53.03       117.42      
H           111.39304   54.18194    117.17828   
H           111.62      52.88       116.06      
H           105.35      46.28       118.31      
H           106.60611   45.91086    119.51663   
H           105.41      47.2        119.91      
H           106.95      48.65       113.44      
H           108.07      50.25       114.88      
H           109.3       49.95       121.35      
H           110.75      51.19       122.75      
C           107.01      48.44       114.49      
N           106.3       47.14       116.29      
C           106.36      47.35       115.0       
C           113.96      54.37       123.64      
C           114.46      54.51       122.4       
S           112.41      53.45       123.6       
H           113.93      53.96       120.28      
H           115.43      54.92       122.21      
C           113.65      53.95       121.36      
C           112.5       53.28       121.88      
C           119.18      55.01       133.29      
N           117.87      54.8        133.33      
C           119.96      55.0        132.17      
C           117.29      54.66       132.13      
C           117.89      54.85       130.88      
C           116.83      54.69       129.83      
C           115.55      54.54       130.7       
N           115.94      54.59       132.03      
C           116.84      54.66       128.47      
C           118.1       54.62       127.67      
N           117.79      54.51       126.34      
C           116.39      54.46       126.23      
C           114.35      54.63       127.31      
C           115.71      54.53       127.5       
C           119.29      55.0        130.99      
O           119.3       54.69       127.88      
O           114.4       54.21       130.43      
C           118.6       55.06       125.28      
C           115.05      54.71       133.15      
H           114.16      55.28       132.99      
H           114.78722   53.70859    133.49091   
H           115.58      55.27       133.88      
H           118.07      55.96       124.9       
H           118.85222   54.31017    124.53017   
H           119.59      55.43       125.62      
H           112.73      54.6        125.93      
H           113.77      54.86       128.15      
H           119.83      55.16       130.12      
H           121.01      55.17       132.17      
C           113.75      54.47       126.08      
N           115.93      54.56       125.02      
C           114.55      54.51       124.95      
C           120.09      54.69       137.13      
C           121.22      54.96       136.47      
S           118.78      54.8        136.04      
H           121.89      55.39       134.37      
H           122.25      54.93       136.8       
C           121.02      55.18       135.04      
C           119.76      55.01       134.62      
H           83.77       36.88       33.78       
H           119.97      54.09       138.05      
