392

C           72.25       25.31       38.23       
N           71.9        25.52       36.93       
C           73.09       26.19       38.86       
C           72.44       26.54       36.37       
C           73.43       27.47       36.95       
C           73.85       28.41       35.91       
C           73.03       27.93       34.68       
N           72.31       26.86       35.03       
C           74.72       29.48       36.0        
C           75.53       29.93       37.17       
N           76.4        30.93       36.81       
C           75.97       31.45       35.55       
C           74.35       31.16       33.92       
C           74.95       30.64       35.07       
C           73.74       27.25       38.29       
O           75.87       29.39       38.23       
O           72.92       28.4        33.54       
C           77.63       31.29       37.47       
C           71.27       26.28       34.2        
H           70.92       27.05       33.53       
H           71.55346    25.38       33.65433    
H           70.38       26.06       34.84       
H           77.64       32.4        37.53       
H           78.5409     30.88516    37.02901    
H           77.59       30.94       38.48       
H           74.48       32.52       32.35       
H           73.54       30.62       33.43       
H           74.52       27.83       38.87       
H           73.17       25.94       39.94       
C           74.92       32.21       33.26       
N           76.48       32.52       35.05       
C           75.97       32.91       33.82       
C           71.54       21.94       40.21       
C           70.76       21.95       39.06       
S           72.48       23.41       40.26       
H           70.46       23.21       37.29       
H           69.96       21.24       38.88       
C           70.91       23.1        38.26       
C           71.74       24.05       38.78       
C           73.4        16.02       49.4        
N           72.3        15.67       48.71       
C           74.23       17.1        49.03       
C           72.14       16.32       47.55       
C           72.97       17.45       47.04       
C           72.33       17.9        45.77       
C           71.24       16.83       45.47       
N           71.22       15.98       46.55       
C           72.52       19.07       44.95       
C           73.44       20.24       45.37       
N           73.56       21.12       44.3        
C           72.65       20.72       43.3        
C           71.11       19.04       42.53       
C           71.96       19.49       43.62       
C           74.09       17.75       47.84       
O           74.05       20.42       46.42       
O           70.5        16.65       44.48       
C           74.38       22.33       44.36       
C           70.21       14.95       46.72       
H           69.36       15.47       46.42       
H           70.39508    14.05204    46.1305     
H           70.18       14.71       47.77       
H           73.75       23.22       44.01       
H           75.26717    22.27134    43.72945    
H           74.64       22.52       45.36       
H           70.24       19.47       40.6        
H           70.61       18.07       42.7        
H           74.8        18.52       47.54       
H           75.07       17.37       49.69       
C           70.96       19.73       41.36       
N           72.47       21.41       42.2        
C           71.57       20.99       41.26       
C           74.34       14.51       52.75       
C           73.53       13.63       52.16       
S           74.58       15.92       51.81       
H           72.38       13.4        50.4        
H           73.27       12.72       52.67       
C           73.07       14.01       50.9        
C           73.66       15.17       50.58       
C           78.28       13.12       62.85       
N           78.36       14.3        62.28       
C           77.76       11.96       62.18       
C           78.0        14.37       61.06       
C           77.49       13.31       60.29       
C           77.09       13.91       58.99       
C           77.61       15.36       59.1        
N           78.04       15.53       60.38       
C           76.32       13.42       57.92       
C           75.49       12.11       57.86       
N           74.78       12.07       56.67       
C           75.22       13.15       55.88       
C           76.38       15.06       55.83       
C           76.01       14.01       56.61       
C           77.47       12.02       60.84       
O           75.34       11.2        58.67       
O           77.48       16.33       58.42       
C           73.87       11.02       56.33       
C           78.49       16.87       60.86       
H           79.06       17.4        60.08       
H           77.69997    17.49484    61.27656    
H           79.27       16.67       61.6        
H           73.07       11.38       55.74       
H           74.40439    10.15784    55.93099    
H           73.31       10.84       57.24       
H           76.13       16.25       54.06       
H           77.07       15.82       56.28       
H           77.26       11.16       60.23       
H           77.64       11.01       62.81       
C           75.92       15.32       54.56       
N           74.66       13.35       54.66       
C           75.01       14.43       54.0        
C           79.9        13.68       66.33       
C           79.41       12.4        66.31       
S           79.37       14.5        64.85       
H           78.2        11.14       64.92       
H           79.51       11.68       67.15       
C           78.69       12.05       65.12       
C           78.72       13.09       64.23       
C           83.63       18.71       75.52       
N           83.85       19.25       74.35       
C           82.84       17.55       75.65       
C           83.39       18.61       73.29       
C           82.59       17.44       73.3        
C           82.29       17.19       71.84       
C           83.04       18.24       71.1        
N           83.65       19.07       72.0        
C           81.53       16.16       71.19       
C           80.59       15.19       71.88       
N           80.02       14.33       71.0        
C           80.46       14.68       69.74       
C           81.87       15.98       68.49       
C           81.39       15.78       69.81       
C           82.28       16.92       74.57       
O           80.3        15.16       73.03       
O           83.18       18.37       69.89       
C           79.34       13.1        71.38       
C           84.94       19.63       71.72       
H           85.44       18.98       70.96       
H           84.94       20.67102    71.39692    
H           85.56       19.61       72.66       
H           79.35       12.97       72.53       
H           78.29045    13.17801    71.09634    
H           79.85       12.32       70.81       
H           81.85       15.49       66.42       
H           82.66       16.7        68.32       
H           81.74       15.92       74.68       
H           82.8        17.03       76.54       
C           81.47       15.28       67.35       
N           80.03       14.0        68.7        
C           80.41       14.36       67.48       
C           85.81       21.15       77.62       
C           85.07       20.45       78.58       
S           85.3        20.71       76.07       
H           83.88       18.56       78.53       
H           85.23       20.56       79.62       
C           84.33       19.35       77.97       
C           84.34       19.42       76.58       
C           92.78       29.8        76.9        
N           91.8        29.83       77.89       
C           92.97       28.71       76.03       
C           91.05       28.72       78.05       
C           91.09       27.57       77.23       
C           90.11       26.53       77.72       
C           89.51       27.29       78.89       
N           90.19       28.49       79.05       
C           89.63       25.35       77.25       
C           90.03       24.72       75.9        
N           89.21       23.68       75.72       
C           88.39       23.38       76.82       
C           87.63       24.26       78.79       
C           88.51       24.44       77.71       
C           92.09       27.63       76.15       
O           90.81       25.13       75.08       
O           88.66       26.97       79.71       
C           89.16       22.99       74.43       
C           89.79       29.42       80.09       
H           88.87       29.04       80.62       
H           90.58119    29.56704    80.82518    
H           89.66       30.33       79.53       
H           88.17       22.76       74.24       
H           89.94013    22.23154    74.36499    
H           89.39       23.76       73.78       
H           85.88       23.07       79.63       
H           87.57       24.98       79.58       
H           92.21       26.78       75.41       
H           93.75       28.59       75.29       
C           86.65       23.19       78.83       
N           87.56       22.34       76.79       
C           86.65       22.31       77.77       
C           94.46       33.34       77.05       
C           95.22       32.51       76.24       
S           93.04       32.53       77.59       
H           95.09       30.39       75.6        
H           96.16       32.74       75.84       
C           94.67       31.21       76.09       
C           93.48       31.02       76.81       
C           99.66       41.4        82.16       
N           98.39       41.09       82.58       
C           100.17      40.78       81.08       
C           97.68       40.37       81.82       
C           98.12       39.67       80.64       
C           97.09       38.75       80.2        
C           95.88       39.16       81.1        
N           96.29       40.08       82.02       
C           97.06       37.77       79.22       
C           98.08       37.61       78.07       
N           97.63       36.67       77.17       
C           96.51       36.1        77.65       
C           94.91       36.18       79.39       
C           96.12       36.68       78.92       
C           99.46       39.89       80.29       
O           99.05       38.26       77.71       
O           94.77       38.66       81.17       
C           98.18       36.54       75.79       
C           95.45       40.83       82.9        
H           94.45       40.87       82.47       
H           95.3797     40.45038    83.91934    
H           95.78       41.85       82.9        
H           98.45       37.52       75.36       
H           98.97456    35.79466    75.75484    
H           97.32       36.19       75.21       
H           93.5        34.57       79.27       
H           94.58       36.51       80.4        
H           99.96       39.23       79.61       
H           101.24      40.87       80.88       
C           94.25       35.12       78.74       
N           95.88       35.12       76.95       
C           94.76       34.64       77.51       
C           101.48      42.81       85.29       
C           102.09      43.42       84.23       
S           100.18      41.77       84.85       
H           101.71      43.23       81.94       
H           103.0       44.08       84.3        
C           101.51      42.93       82.96       
C           100.47      42.06       83.17       
C           106.65      42.67       94.86       
N           106.04      43.81       94.49       
C           106.43      41.49       94.19       
C           105.27      43.8        93.49       
C           104.84      42.68       92.73       
C           103.96      43.22       91.71       
C           103.93      44.72       91.89       
N           104.72      45.01       92.98       
C           103.24      42.6        90.68       
C           103.02      41.07       90.66       
N           102.5       40.73       89.44       
C           102.32      41.84       88.65       
C           102.69      44.18       88.57       
C           102.68      43.02       89.4        
C           105.5       41.48       93.14       
O           103.23      40.22       91.48       
O           103.31      45.53       91.2        
C           102.04      39.42       89.1        
C           104.53      46.25       93.77       
H           104.61      45.91       94.83       
H           105.25495   47.0555     93.65284    
H           103.5       46.55       93.72       
H           102.27      39.26       88.11       
H           100.96335   39.2774     89.19269    
H           102.49      38.66       89.72       
H           102.45      45.15       86.68       
H           102.91      45.03       89.03       
H           105.28      40.54       92.74       
H           106.8       40.61       94.51       
C           102.25      44.21       87.25       
N           101.83      41.88       87.42       
C           101.79      43.02       86.7        
C           108.63      43.93       97.87       
C           108.92      42.6        97.84       
S           107.4       44.43       96.78       
H           108.46      41.02       96.4        
H           109.59      42.2        98.62       
C           108.25      42.0        96.74       
C           107.42      42.84       96.03       
C           111.2       50.5        106.45      
N           110.96      51.03       105.2       
C           110.94      49.16       106.7       
C           110.61      50.21       104.21      
C           110.33      48.84       104.33      
C           110.05      48.41       102.88      
C           110.05      49.75       102.08      
N           110.44      50.73       102.96      
C           109.79      47.1        102.4       
C           109.64      45.85       103.28      
N           109.51      44.79       102.39      
C           109.38      45.21       101.09      
C           109.44      47.11       99.66       
C           109.58      46.63       100.94      
C           110.56      48.32       105.65      
O           109.62      45.77       104.45      
O           109.77      49.96       100.91      
C           109.65      43.35       102.85      
C           110.76      52.07       102.48      
H           110.19      52.67       103.15      
H           111.82412   52.30568    102.46572   
H           110.35      52.26       101.48      
H           110.43      42.82       102.29      
H           108.71303   42.79345    102.87113   
H           110.07      43.39       103.91      
H           109.12      46.58       97.61       
H           109.71      48.13       99.42       
H           110.35      47.27       105.93      
H           111.09      48.72       107.63      
C           109.19      46.2        98.61       
N           109.01      44.39       100.15      
C           108.98      44.89       98.92       
C           112.2       52.27       109.77      
C           111.8       53.22       108.92      
S           112.27      50.74       109.01      
H           111.07      53.31       106.9       
H           111.58      54.26       109.21      
C           111.47      52.7        107.66      
C           111.61      51.35       107.57      
C           117.61      52.71       119.38      
N           117.65      53.72       118.49      
C           116.8       51.6        119.2       
C           116.87      53.55       117.43      
C           116.06      52.47       117.05      
C           115.33      52.79       115.76      
C           115.93      54.2        115.51      
N           116.85      54.51       116.47      
C           114.49      52.21       114.86      
C           113.93      50.84       115.11      
N           113.28      50.39       114.0       
C           113.35      51.41       113.01      
C           113.64      53.82       112.86      
C           113.86      52.63       113.62      
C           116.12      51.42       117.97      
O           113.97      50.1        116.1       
O           115.77      54.96       114.53      
C           113.02      48.99       113.77      
C           117.5       55.84       116.63      
H           118.59      55.74       116.68      
H           117.02873   56.47551    117.37975   
H           117.3       56.21       115.64      
H           113.51      48.32       114.39      
H           111.94682   48.80147    113.799     
H           113.4       48.68       112.78      
H           113.2       54.49       110.92      
H           113.88      54.79       113.18      
H           115.66      50.47       117.82      
H           116.76      50.77       119.91      
C           113.19      53.69       111.61      
N           112.71      51.34       111.83      
C           112.64      52.47       111.14      
C           119.55      52.49       122.85      
C           120.19      53.35       122.04      
S           118.08      51.92       122.03      
H           119.99      54.07       119.93      
H           121.03      53.95       122.37      
C           119.61      53.49       120.75      
C           118.42      52.8        120.6       
C           120.92      51.17       133.72      
N           120.17      50.29       132.99      
C           121.73      52.14       133.07      
C           120.12      50.47       131.75      
C           120.82      51.42       130.92      
C           120.4       51.23       129.51      
C           119.31      50.15       129.7       
N           119.24      49.82       131.0       
C           120.8       51.73       128.3       
C           121.89      52.79       128.19      
N           121.92      53.27       126.95      
C           120.95      52.67       126.18      
C           119.51      50.74       126.11      
C           120.4       51.55       126.9       
C           121.77      52.11       131.68      
O           122.65      53.24       129.03      
O           118.68      49.61       128.87      
C           122.86      54.24       126.44      
C           118.18      49.05       131.55      
H           118.46      48.85       132.61      
H           117.23727   49.59362    131.48807   
H           118.12      48.17       130.99      
H           122.33      55.03       125.85      
H           123.68027   53.82986    125.8509    
H           123.37      54.73       127.3       
H           118.56      50.4        124.25      
H           119.03      49.86       126.52      
H           122.56      52.71       131.25      
H           122.39      52.81       133.64      
C           119.23      51.01       124.8       
N           120.77      52.92       124.89      
C           119.82      52.12       124.24      
C           120.08      50.15       137.43      
C           120.93      51.18       137.51      
S           119.8       49.7        135.8       
H           121.89      52.59       136.15      
H           121.19      51.66       138.47      
C           121.32      51.71       136.23      
C           120.79      51.0        135.19      
H           76.46       33.73       33.3        
H           119.47      49.9        138.3       
