392

C           63.84       5.47        31.66       
N           62.63       5.46        31.33       
C           64.81       5.3         30.72       
C           62.28       5.27        30.06       
C           63.15       5.16        28.95       
C           62.37       5.03        27.72       
C           60.96       4.86        28.34       
N           61.0        5.24        29.6        
C           62.64       4.69        26.39       
C           64.11       4.38        25.92       
N           64.04       3.93        24.57       
C           62.76       3.95        24.11       
C           60.5        4.51        24.65       
C           61.83       4.44        25.11       
C           64.53       5.12        29.37       
O           65.16       4.31        26.48       
O           59.85       4.72        27.71       
C           65.26       3.62        23.82       
C           59.81       5.33        30.46       
H           59.02       5.81        29.86       
H           59.61505    4.34829     30.89167    
H           60.01       6.1         31.28       
H           64.96       3.62        22.77       
H           65.65751    2.62262     24.00791    
H           65.92       4.49        23.99       
H           59.21       4.24        22.97       
H           59.8        5.05        25.22       
H           65.31       4.88        28.73       
H           65.87       5.21        31.02       
C           60.22       4.11        23.39       
N           62.58       3.62        22.89       
C           61.3        3.85        22.5        
C           65.17       5.14        35.31       
C           63.82       5.21        35.4        
S           65.71       5.29        33.65       
H           62.09       5.12        33.93       
H           63.21       5.04        36.29       
C           63.18       5.21        34.12       
C           64.09       5.38        33.08       
C           73.49       4.33        42.77       
N           72.28       4.85        43.15       
C           73.72       4.0         41.5        
C           71.39       4.87        42.21       
C           71.48       4.57        40.82       
C           70.09       4.79        40.25       
C           69.26       5.22        41.47       
N           70.12       5.28        42.55       
C           69.59       4.82        38.94       
C           70.46       4.78        37.71       
N           69.65       4.81        36.56       
C           68.29       4.73        36.86       
C           66.87       4.82        38.72       
C           68.19       4.79        38.31       
C           72.7        4.04        40.5        
O           71.64       4.74        37.57       
O           68.07       5.55        41.6        
C           70.18       4.81        35.22       
C           70.01       6.31        43.5        
H           69.38       7.09        43.09       
H           69.50344    5.94916     44.39515    
H           71.0        6.74        43.67       
H           69.51       5.35        34.49       
H           70.30307    3.78925     34.85803    
H           71.13       5.35        35.25       
H           64.79       4.7         38.05       
H           66.71       4.64        39.76       
H           72.97       3.73        39.47       
H           74.66       3.6         41.3        
C           65.83       4.76        37.77       
N           67.39       4.79        36.0        
C           66.11       4.85        36.4        
C           75.69       4.16        45.97       
C           76.4        3.56        44.96       
S           74.05       4.54        45.46       
H           76.13       3.18        42.76       
H           77.37       3.09        45.1        
C           75.7        3.55        43.72       
C           74.46       4.15        43.82       
C           79.52       7.29        56.03       
N           78.56       7.96        55.37       
C           80.1        6.1         55.44       
C           78.1        7.47        54.24       
C           78.58       6.31        53.5        
C           77.81       6.19        52.24       
C           77.0        7.47        52.22       
N           77.13       8.04        53.45       
C           77.79       5.4         51.16       
C           78.92       4.49        50.86       
N           78.63       3.74        49.75       
C           77.48       4.16        49.1        
C           75.7        5.64        49.47       
C           76.9        5.13        50.0        
C           79.59       5.7         54.16       
O           79.95       4.5         51.41       
O           76.32       7.92        51.34       
C           79.54       2.79        49.18       
C           76.68       9.39        53.61       
H           76.71       9.89        52.66       
H           75.70065    9.46533     54.08255    
H           77.43       9.78        54.21       
H           80.47       2.89        49.69       
H           79.22566    1.76658     49.38468    
H           79.72       3.09        48.11       
H           74.32       5.81        47.84       
H           75.11       6.31        50.13       
H           80.09       4.93        53.6        
H           80.97       5.67        55.88       
C           75.24       5.36        48.16       
N           77.14       3.9         47.84       
C           76.02       4.49        47.34       
C           80.99       9.63        58.76       
C           81.24       8.33        59.13       
S           80.22       9.58        57.23       
H           80.83       6.25        58.3        
H           81.6        8.13        60.16       
C           80.75       7.35        58.22       
C           80.13       7.89        57.12       
C           83.38       17.9        65.23       
N           83.15       18.16       63.99       
C           82.81       16.86       65.93       
C           82.53       17.2        63.27       
C           82.05       15.95       63.78       
C           81.75       15.16       62.58       
C           81.89       16.1        61.42       
N           82.36       17.28       61.88       
C           81.32       13.84       62.46       
C           80.68       13.01       63.54       
N           80.68       11.72       63.08       
C           80.89       11.69       61.67       
C           81.58       13.13       59.9        
C           81.23       12.99       61.25       
C           82.07       15.89       65.2        
O           80.49       13.35       64.7        
O           81.45       16.06       60.24       
C           80.18       10.6        63.78       
C           82.43       18.51       61.1        
H           82.34       18.27       60.07       
H           81.60949    19.18781    61.33545    
H           83.4        18.9        61.26       
H           79.7        9.86        63.15       
H           80.90299    10.19679    64.48909    
H           79.36       10.99       64.34       
H           81.71       12.17       57.99       
H           81.85       14.05       59.5        
H           81.76       15.05       65.75       
H           82.89       16.79       67.0        
C           81.44       12.04       59.05       
N           80.9        10.6        60.9        
C           81.04       10.84       59.57       
C           86.17       20.19       66.66       
C           85.44       19.79       67.69       
S           85.58       19.55       65.17       
H           83.68       18.56       68.03       
H           85.64       20.11       68.68       
C           84.36       18.97       67.32       
C           84.24       18.76       65.97       
C           94.12       27.7        64.72       
N           93.62       27.72       65.96       
C           93.69       26.78       63.76       
C           92.78       26.69       66.26       
C           92.34       25.63       65.38       
C           91.4        24.77       66.08       
C           91.33       25.42       67.49       
N           92.21       26.54       67.52       
C           90.64       23.58       65.78       
C           90.97       22.73       64.55       
N           89.99       21.79       64.38       
C           89.17       21.75       65.46       
C           88.62       22.89       67.45       
C           89.49       22.83       66.35       
C           92.89       25.73       64.09       
O           91.9        22.83       63.76       
O           90.63       25.03       68.42       
C           89.77       21.21       63.05       
C           92.12       27.56       68.52       
H           91.15       27.65       68.95       
H           92.93935    27.54563    69.23872    
H           92.25       28.51       68.05       
H           88.72       21.32       62.8        
H           90.20516    20.21127    63.01433    
H           90.22       21.89       62.29       
H           87.02       22.07       68.51       
H           88.8        23.69       68.17       
H           92.72       25.01       63.31       
H           94.02       26.91       62.7        
C           87.6        21.97       67.65       
N           88.1        20.94       65.56       
C           87.37       21.03       66.66       
C           96.31       31.0        64.83       
C           96.5        30.39       63.64       
S           95.06       30.15       65.63       
H           95.97       28.56       62.61       
H           97.23       30.78       62.92       
C           95.73       29.22       63.43       
C           94.96       28.91       64.46       
C           101.48      39.99       68.95       
N           100.3       39.64       69.42       
C           102.03      39.25       67.93       
C           99.7        38.52       69.01       
C           100.19      37.61       68.06       
C           99.15       36.56       67.8        
C           97.98       37.08       68.66       
N           98.38       38.24       69.33       
C           99.12       35.43       67.05       
C           100.37      34.82       66.4        
N           100.09      33.62       65.75       
C           98.69       33.48       65.71       
C           96.72       34.1        66.81       
C           98.07       34.46       66.56       
C           101.48      38.01       67.58       
O           101.5       35.24       66.35       
O           96.86       36.6        68.79       
C           100.96      32.52       65.68       
C           97.56       39.12       70.07       
H           96.49       39.01       69.82       
H           97.70591    39.03662    71.14697    
H           97.89       40.19       69.77       
H           100.45      31.57       65.94       
H           101.37907   32.33937    64.69013    
H           101.8       32.73       66.36       
H           95.05       32.92       66.25       
H           96.23       34.63       67.59       
H           102.04      37.44       66.87       
H           102.97      39.51       67.48       
C           96.19       33.0        66.23       
N           98.18       32.54       65.08       
C           96.87       32.23       65.38       
C           103.33      42.19       71.58       
C           103.91      42.52       70.4        
S           101.89      41.23       71.37       
H           103.58      41.79       68.31       
H           104.79      43.1        70.29       
C           103.27      41.83       69.31       
C           102.19      41.07       69.67       
C           107.15      45.92       81.2        
N           107.31      46.64       80.08       
C           106.33      44.79       81.29       
C           106.53      46.18       79.08       
C           105.82      44.98       79.01       
C           105.35      44.9        77.56       
C           105.76      46.2        76.94       
N           106.5       46.85       77.88       
C           104.59      43.98       76.77       
C           103.92      42.71       77.34       
N           103.4       41.95       76.27       
C           103.67      42.59       75.07       
C           104.76      44.48       74.16       
C           104.36      43.82       75.34       
C           105.62      44.34       80.19       
O           103.83      42.52       78.58       
O           105.47      46.72       75.83       
C           103.24      40.55       76.41       
C           106.73      48.3        77.85       
H           106.83      48.75       78.87       
H           107.62689   48.59661    77.30621    
H           105.94      48.71       77.23       
H           103.99      40.13       75.75       
H           102.31254   40.14856    76.00164    
H           103.3       40.24       77.46       
H           104.71      44.53       72.0        
H           105.43      45.28       74.19       
H           105.02      43.48       80.29       
H           106.2       44.32       82.31       
C           104.4       44.04       72.86       
N           103.33      42.11       73.93       
C           103.64      42.86       72.84       
C           109.08      48.08       83.9        
C           108.9       46.88       84.46       
S           108.45      48.14       82.32       
H           107.91      44.98       83.85       
H           109.14      46.64       85.51       
C           108.23      45.92       83.55       
C           107.84      46.54       82.38       
C           110.68      57.22       90.01       
N           110.55      57.29       88.72       
C           110.47      56.01       90.63       
C           110.34      56.22       88.01       
C           110.18      54.91       88.46       
C           110.18      53.89       87.35       
C           110.24      54.83       86.14       
N           110.41      56.12       86.57       
C           110.1       52.51       87.23       
C           109.69      51.58       88.39       
N           109.37      50.29       87.91       
C           109.8       50.22       86.59       
C           110.33      51.6        84.64       
C           110.08      51.54       86.07       
C           110.18      54.88       89.9        
O           109.36      51.89       89.5        
O           110.11      54.56       84.98       
C           108.49      49.33       88.5        
C           111.11      56.99       85.63       
H           111.6       56.42       84.82       
H           110.52245   57.86779    85.361      
H           111.98      57.37       86.19       
H           108.85      48.27       88.35       
H           107.45639   49.65027    88.36898    
H           108.59      49.26       89.54       
H           110.12      50.44       82.85       
H           110.71      52.54       84.18       
H           110.09      53.96       90.37       
H           110.51      55.96       91.69       
C           110.18      50.42       83.9        
N           109.51      49.18       85.84       
C           109.6       49.26       84.54       
C           111.6       60.04       92.46       
C           111.94      60.51       91.25       
S           110.94      58.44       92.47       
H           111.89      59.68       89.17       
H           112.52      61.38       91.09       
C           111.68      59.55       90.22       
C           111.04      58.41       90.73       
C           112.37      64.22       102.79      
N           112.25      65.05       101.7       
C           112.43      62.87       102.64      
C           112.15      64.51       100.55      
C           112.1       63.14       100.23      
C           112.1       63.07       98.77       
C           112.25      64.48       98.27       
N           112.26      65.25       99.44       
C           111.94      61.94       97.86       
C           111.57      60.5        98.27       
N           111.39      59.72       97.12       
C           111.59      60.49       95.99       
C           112.52      62.51       95.26       
C           112.06      61.79       96.34       
C           112.28      62.31       101.39      
O           111.22      60.17       99.37       
O           112.27      64.89       97.12       
C           111.14      58.26       97.11       
C           112.24      66.73       99.39       
H           112.71      67.12       100.28      
H           111.20878   67.06426    99.50379    
H           112.63      67.1        98.49       
H           111.46      57.87       98.03       
H           110.08735   58.01438    96.96965    
H           111.66      57.82       96.31       
H           112.88      62.61       93.14       
H           113.11      63.42       95.31       
H           112.4       61.31       101.19      
H           112.79      62.27       103.49      
C           112.43      62.01       93.92       
N           111.56      60.0        94.78       
C           111.86      60.74       93.73       
C           113.56      65.48       106.28      
C           113.75      66.57       105.4       
S           113.08      64.0        105.5       
H           113.24      66.93       103.29      
H           113.97      67.57       105.72      
C           113.25      66.24       104.11      
C           112.8       64.88       104.01      
C           115.29      67.48       117.15      
N           114.91      66.25       116.75      
C           115.61      68.5        116.24      
C           114.84      66.17       115.41      
C           114.9       67.14       114.4       
C           114.61      66.39       113.13      
C           114.46      64.95       113.55      
N           114.53      64.91       114.89      
C           114.69      66.74       111.79      
C           115.31      68.09       111.32      
N           115.18      68.08       109.93      
C           114.61      66.93       109.49      
C           113.55      65.02       110.05      
C           114.32      66.07       110.5       
C           115.36      68.33       114.87      
O           115.91      68.96       111.92      
O           114.35      63.92       112.87      
C           115.52      69.22       109.17      
C           114.3       63.68       115.61      
H           114.98      63.7        116.47      
H           113.2951    63.54648    116.01056   
H           114.64      62.83       115.07      
H           114.8       69.41       108.4       
H           116.53429   69.11035    108.78621   
H           115.48      70.08       109.81      
H           112.67      64.02       108.4       
H           113.1       64.35       110.76      
H           115.53      69.15       114.17      
H           115.91      69.52       116.6       
C           113.31      64.81       108.68      
N           114.42      66.79       108.19      
C           113.85      65.61       107.73      
C           115.73      67.34       121.08      
C           116.25      68.52       120.65      
S           115.02      66.46       119.75      
H           116.51      69.54       118.79      
H           116.58      69.3        121.31      
C           116.16      68.69       119.28      
C           115.48      67.67       118.6       
H           61.1        3.47        21.49       
H           115.66      66.93       122.06      
