392

C           56.48       38.79       26.51       
N           55.28       39.39       26.65       
C           56.96       38.31       25.28       
C           54.62       39.58       25.57       
C           54.98       39.3        24.21       
C           53.87       39.76       23.4        
C           52.88       40.38       24.37       
N           53.36       40.18       25.64       
C           53.6        39.74       22.01       
C           54.73       39.48       21.0        
N           54.19       39.57       19.76       
C           52.85       40.04       19.82       
C           51.04       40.26       21.32       
C           52.42       40.03       21.19       
C           56.19       38.62       24.06       
O           55.9        39.11       21.07       
O           51.81       40.81       24.07       
C           54.74       39.05       18.52       
C           52.49       40.31       26.77       
H           52.07       41.29       26.73       
H           51.68611    39.57663    26.83346    
H           53.1        40.32       27.67       
H           54.49       39.65       17.7        
H           54.38054    38.02914    18.3906     
H           55.79       39.18       18.64       
H           49.1        40.57       20.32       
H           50.59       40.15       22.26       
H           56.4        38.17       23.16       
H           57.92       37.79       25.22       
C           50.19       40.47       20.19       
N           52.1        40.22       18.77       
C           50.8        40.61       18.93       
C           58.98       38.23       29.56       
C           57.71       38.24       30.04       
S           58.93       38.36       27.83       
H           55.67       38.67       29.36       
H           57.54       37.9        31.01       
C           56.71       38.59       29.09       
C           57.21       38.61       27.8        
C           68.75       36.56       34.66       
N           67.65       36.83       35.39       
C           68.63       36.46       33.27       
C           66.51       37.07       34.74       
C           66.3        37.01       33.3        
C           64.92       37.38       33.06       
C           64.3        37.49       34.45       
N           65.3        37.17       35.37       
C           64.17       37.64       31.87       
C           64.77       37.87       30.49       
N           63.71       38.13       29.56       
C           62.48       38.02       30.2        
C           61.48       37.45       32.29       
C           62.68       37.76       31.59       
C           67.45       36.64       32.57       
O           65.91       38.01       30.13       
O           63.26       37.92       34.85       
C           63.95       38.48       28.13       
C           65.18       37.08       36.85       
H           64.34       37.63       37.18       
H           65.0641     36.04411    37.16874    
H           66.11       37.39       37.31       
H           63.21       39.27       27.86       
H           63.9217     37.64525    27.42965    
H           64.95       39.01       27.95       
H           59.37       37.52       32.3        
H           61.52       37.01       33.28       
H           67.33       36.39       31.53       
H           69.47       36.24       32.63       
C           60.23       37.64       31.67       
N           61.34       38.2        29.68       
C           60.21       38.01       30.34       
C           71.92       36.94       36.93       
C           72.33       36.34       35.77       
S           70.29       37.34       36.77       
H           71.5        35.63       33.9        
H           73.34       36.01       35.56       
C           71.28       36.04       34.89       
C           70.04       36.43       35.34       
C           78.8        38.57       45.36       
N           77.58       39.27       45.35       
C           79.04       37.6        44.39       
C           76.73       39.04       44.38       
C           76.9        38.15       43.32       
C           75.72       38.3        42.34       
C           74.86       39.28       43.11       
N           75.52       39.71       44.21       
C           75.47       37.82       41.06       
C           76.62       37.23       40.23       
N           76.07       36.77       39.05       
C           74.71       37.22       38.97       
C           72.96       38.23       40.24       
C           74.3        37.88       40.16       
C           78.08       37.37       43.37       
O           77.78       37.0        40.48       
O           73.79       39.86       42.81       
C           76.78       35.86       38.16       
C           74.96       40.49       45.26       
H           74.25       41.21       44.81       
H           74.51989    39.8225     46.00085    
H           75.73       40.98       45.84       
H           77.83       36.2        38.0        
H           76.56363    34.80702    38.34031    
H           76.4        36.14       37.17       
H           71.15       38.37       39.11       
H           72.53       38.52       41.16       
H           78.32       36.69       42.59       
H           80.07       37.17       44.27       
C           72.15       37.96       39.13       
N           73.97       36.9        37.93       
C           72.71       37.28       38.07       
C           80.92       40.66       47.85       
C           81.66       39.55       47.6        
S           79.43       40.68       46.98       
H           81.43       37.6        46.62       
H           82.64       39.38       47.99       
C           80.96       38.61       46.79       
C           79.77       39.05       46.34       
C           85.86       49.91       51.63       
N           84.54       49.78       52.06       
C           86.53       48.93       50.92       
C           83.96       48.63       51.74       
C           84.61       47.5        51.17       
C           83.61       46.36       50.99       
C           82.37       47.02       51.5        
N           82.63       48.27       51.97       
C           83.57       45.07       50.39       
C           84.91       44.29       50.28       
N           84.67       43.24       49.45       
C           83.31       43.11       49.27       
C           81.2        44.07       49.68       
C           82.54       44.16       49.89       
C           85.87       47.76       50.69       
O           86.03       44.69       50.56       
O           81.19       46.64       51.43       
C           85.69       42.62       48.67       
C           81.68       49.11       52.66       
H           80.75       48.74       52.4        
H           81.8772     49.05366    53.73053    
H           81.74       50.08       52.2        
H           85.36       41.57       48.56       
H           85.69699    43.05358    47.66997    
H           86.72       42.48       49.18       
H           79.6        42.93       48.87       
H           80.62       44.81       50.11       
H           86.4        47.05       50.09       
H           87.59       48.99       50.59       
C           80.64       42.97       48.92       
N           82.8        42.02       48.69       
C           81.49       41.93       48.42       
C           87.69       53.23       52.14       
C           86.53       53.34       52.82       
S           87.95       51.61       51.57       
H           84.77       52.13       53.31       
H           86.3        54.25       53.38       
C           85.71       52.24       52.75       
C           86.35       51.25       52.05       
C           96.99       58.93       53.34       
N           95.83       59.49       53.66       
C           97.07       57.66       52.8        
C           94.75       58.89       53.16       
C           94.62       57.63       52.53       
C           93.11       57.36       52.3        
C           92.46       58.65       52.88       
N           93.47       59.41       53.49       
C           92.44       56.2        51.92       
C           93.14       55.04       51.21       
N           92.25       54.03       51.09       
C           90.96       54.45       51.5        
C           89.89       56.16       52.71       
C           91.05       55.76       52.11       
C           95.86       56.97       52.43       
O           94.31       55.0        50.7        
O           91.28       58.97       52.9        
C           92.65       52.59       50.9        
C           93.15       60.61       54.23       
H           92.28       61.05       53.8        
H           93.13589    60.52533    55.31661    
H           93.88       61.46       54.06       
H           91.8        52.14       50.37       
H           92.84596    52.06743    51.83628    
H           93.53       52.54       50.22       
H           87.89       55.75       53.2        
H           89.8        57.22       52.98       
H           95.91       55.99       51.95       
H           97.99       57.13       52.79       
C           88.75       55.37       52.7        
N           89.91       53.59       51.59       
C           88.86       54.1        52.25       
C           99.51       61.24       54.99       
C           100.23      60.29       54.33       
S           97.82       61.15       54.6        
H           99.8        58.41       53.13       
H           101.33      60.26       54.46       
C           99.42       59.29       53.64       
C           98.09       59.65       53.8        
C           104.77      66.93       62.87       
N           103.45      66.91       62.94       
C           105.46      66.52       61.7        
C           102.8       66.5        61.86       
C           103.35      65.97       60.67       
C           102.25      65.43       59.84       
C           101.01      65.77       60.63       
N           101.4       66.36       61.79       
C           102.23      64.77       58.55       
C           103.4       64.81       57.57       
N           103.13      63.91       56.58       
C           101.83      63.45       56.66       
C           99.97       63.53       58.0        
C           101.25      63.99       57.81       
C           104.78      65.97       60.69       
O           104.39      65.53       57.62       
O           99.87       65.57       60.29       
C           103.86      63.95       55.29       
C           100.49      66.8        62.84       
H           101.03      66.87       63.75       
H           100.09497   67.80169    62.6707     
H           99.68       66.09       62.88       
H           104.38      64.89       55.14       
H           104.45206   63.04746    55.13837    
H           103.09      63.99       54.51       
H           98.34       62.27       57.18       
H           99.36       63.74       58.85       
H           105.27      65.51       59.88       
H           106.56      66.38       61.76       
C           99.34       62.67       57.04       
N           101.28      62.73       55.68       
C           100.03      62.27       55.91       
C           106.26      69.15       65.71       
C           107.29      68.62       65.03       
S           104.75      68.5        65.17       
H           107.67      67.05       63.48       
H           108.36      68.91       65.18       
C           106.92      67.66       64.04       
C           105.55      67.41       64.0        
C           105.45      78.36       71.87       
N           106.29      78.39       70.81       
C           104.59      77.34       72.06       
C           106.34      77.2        70.16       
C           105.47      76.02       70.29       
C           106.01      75.04       69.31       
C           107.27      75.73       68.72       
N           107.31      77.0        69.26       
C           105.5       73.83       68.95       
C           104.26      73.13       69.59       
N           104.04      72.03       68.81       
C           105.08      71.68       67.99       
C           106.99      72.58       67.08       
C           105.95      72.76       67.97       
C           104.55      76.12       71.29       
O           103.48      73.5        70.44       
O           108.01      75.32       67.85       
C           102.95      71.11       69.05       
C           108.02      78.0        68.45       
H           107.32      78.82       68.27       
H           109.02574   78.19967    68.81976    
H           108.06      77.53       67.47       
H           103.39      70.15       69.08       
H           102.19711   71.12407    68.26193    
H           102.62      71.25       70.03       
H           107.87      71.21       65.62       
H           107.68      73.34       66.84       
H           103.79      75.42       71.47       
H           103.84      77.39       72.88       
C           107.1       71.37       66.38       
N           105.16      70.53       67.36       
C           106.21      70.33       66.59       
C           106.13      81.64       73.8        
C           105.49      80.78       74.64       
S           106.37      80.97       72.24       
H           104.62      78.69       74.56       
H           105.19      81.06       75.65       
C           105.19      79.52       74.05       
C           105.53      79.53       72.73       
C           108.31      91.6        78.11       
N           108.77      91.35       76.9        
C           107.69      90.67       78.88       
C           108.6       90.13       76.42       
C           107.87      89.05       77.06       
C           107.74      87.94       76.05       
C           108.57      88.48       74.86       
N           109.02      89.79       75.17       
C           107.29      86.66       76.16       
C           106.85      86.05       77.51       
N           106.27      84.81       77.24       
C           106.57      84.41       75.89       
C           107.3       85.24       73.83       
C           107.16      85.49       75.2        
C           107.59      89.32       78.39       
O           106.85      86.5        78.59       
O           108.92      87.9        73.92       
C           105.29      84.19       78.11       
C           109.8       90.69       74.32       
H           110.69      90.22       73.95       
H           109.18888   91.10215    73.51702    
H           110.08      91.5        75.01       
H           105.37      83.13       78.04       
H           104.26489   84.43744    77.83428    
H           105.6       84.45       79.18       
H           107.17      83.77       72.24       
H           107.52      86.0        73.11       
H           107.04      88.58       78.95       
H           107.35      91.0        79.89       
C           107.06      83.92       73.35       
N           106.04      83.32       75.41       
C           106.48      83.02       74.17       
C           108.93      95.13       79.71       
C           109.33      95.23       78.4        
S           108.39      93.52       80.09       
H           109.36      93.73       76.69       
H           109.83      96.1        77.94       
C           109.08      93.98       77.7        
C           108.59      92.95       78.48       
C           110.44      100.29      89.27       
N           110.6       100.96      88.16       
C           110.06      98.97       89.31       
C           110.29      100.32      87.08       
C           109.9       98.97       86.87       
C           109.7       98.82       85.39       
C           110.09      100.21      84.84       
N           110.4       101.08      85.93       
C           109.28      97.73       84.62       
C           108.71      96.51       85.28       
N           108.5       95.55       84.33       
C           108.75      96.13       83.08       
C           109.37      98.17       81.91       
C           109.2       97.47       83.18       
C           109.81      98.24       88.11       
O           108.63      96.21       86.47       
O           110.15      100.6       83.69       
C           107.79      94.31       84.55       
C           110.8       102.49      85.82       
H           111.56      102.76      86.5        
H           109.9508    103.17083   85.87857    
H           111.16      102.61      84.81       
H           108.04      93.97       85.65       
H           106.7155    94.36582    84.37557    
H           108.28      93.6        83.86       
H           109.25      97.9        79.79       
H           109.61      99.22       81.76       
H           109.42      97.21       88.22       
H           110.07      98.45       90.19       
C           109.19      97.4        80.79       
N           108.75      95.42       82.0        
C           108.96      96.07       80.84       
C           111.91      101.48      92.75       
C           111.9       102.56      91.94       
S           111.09      100.18      91.9        
H           111.34      103.05      89.85       
H           112.3       103.5       92.28       
C           111.49      102.3       90.62       
C           110.95      101.03      90.43       
C           114.61      101.8       103.46      
N           114.31      100.58      102.95      
C           114.49      102.93      102.77      
C           114.09      100.54      101.66      
C           114.05      101.66      100.76      
C           113.84      101.15      99.42       
C           113.94      99.63       99.61       
N           113.93      99.38       101.0       
C           113.69      101.8       98.17       
C           114.0       103.27      97.85       
N           113.63      103.62      96.58       
C           113.13      102.5       95.98       
C           112.74      100.14      96.25       
C           113.19      101.37      96.83       
C           114.17      102.92      101.38      
O           114.54      104.09      98.55       
O           113.84      98.75       98.81       
C           113.32      104.93      96.05       
C           113.4       98.16       101.53      
H           114.08      98.05       102.37      
H           112.37698   98.29133    101.88253   
H           113.57      97.38       100.8       
H           112.29      104.96      95.77       
H           113.96512   105.35314   95.28002    
H           113.49      105.67      96.86       
H           111.93      99.36       94.44       
H           112.71      99.22       96.88       
H           114.1       103.77      100.76      
H           114.71      103.84      103.3       
C           112.27      100.2       94.93       
N           112.72      102.5       94.68       
C           112.29      101.36      94.16       
C           115.73      102.75      107.12      
C           115.45      101.41      107.06      
S           115.09      103.41      105.65      
H           115.15      99.86       105.54      
H           115.7       100.72      107.87      
C           115.12      100.91      105.76      
C           114.81      101.88      104.89      
H           50.38       41.17       18.06       
H           116.35      103.25      107.79      
