392

C           54.76       5.2         24.12       
N           53.99       5.97        23.34       
C           54.79       3.84        23.91       
C           53.43       5.48        22.22       
C           53.47       4.08        21.89       
C           52.58       3.97        20.69       
C           52.32       5.46        20.28       
N           52.83       6.29        21.29       
C           52.08       2.83        20.04       
C           52.27       1.32        20.4        
N           51.53       0.5         19.6        
C           50.8        1.3         18.75       
C           50.33       3.4         17.87       
C           51.11       2.65        18.86       
C           54.19       3.31        22.74       
O           52.98       0.88        21.27       
O           51.69       5.94        19.39       
C           51.53       -0.94       19.65       
C           53.03       7.7         21.19       
H           53.05       8.0         20.12       
H           52.34732    8.3622      21.72249    
H           54.11       7.89        21.54       
H           51.44       -1.33       18.61       
H           50.72151    -1.41222    20.20808    
H           52.5        -1.15       19.99       
H           49.16       3.39        16.1        
H           50.39       4.51        17.8        
H           54.29       2.26        22.54       
H           55.38       3.19        24.57       
C           49.43       2.77        17.01       
N           49.91       0.72        17.99       
C           49.16       1.44        17.07       
C           57.11       6.68        26.86       
C           56.28       7.69        26.55       
S           56.69       5.16        26.08       
H           54.71       8.02        25.04       
H           56.36       8.73        26.87       
C           55.34       7.26        25.54       
C           55.4        5.9         25.23       
C           66.35       7.04        32.79       
N           65.89       8.17        32.25       
C           66.01       5.77        32.31       
C           64.85       8.02        31.39       
C           64.35       6.84        30.83       
C           63.2        7.21        30.03       
C           63.2        8.75        29.99       
N           64.28       9.11        30.76       
C           62.29       6.53        29.27       
C           62.45       5.05        28.82       
N           61.37       4.7         28.1        
C           60.4        5.75        28.08       
C           60.05       7.87        28.97       
C           60.96       6.87        28.77       
C           65.01       5.7         31.36       
O           63.38       4.2         28.91       
O           62.58       9.49        29.33       
C           61.16       3.41        27.46       
C           64.66       10.5        31.01       
H           64.56       11.15       30.13       
H           64.11102    10.99908    31.80852    
H           65.77       10.49       31.1        
H           60.64       3.61        26.51       
H           60.532      2.70168     28.00037    
H           62.18       2.9         27.26       
H           58.1        8.71        28.43       
H           60.35       8.74        29.54       
H           64.8        4.71        30.98       
H           66.58       4.82        32.62       
C           58.77       7.82        28.35       
N           59.19       5.63        27.59       
C           58.39       6.7         27.59       
C           69.38       7.8         35.09       
C           69.14       6.47        35.14       
S           68.26       8.65        34.07       
H           67.58       5.01        34.37       
H           69.65       5.75        35.8        
C           67.93       6.1         34.4        
C           67.44       7.16        33.71       
C           77.0        11.57       42.1        
N           76.41       12.45       41.3        
C           76.61       10.26       42.16       
C           75.33       12.08       40.63       
C           74.82       10.72       40.57       
C           73.63       10.74       39.6        
C           73.63       12.2        39.12       
N           74.57       12.92       39.85       
C           72.85       9.74        39.11       
C           72.69       8.35        39.7        
N           72.04       7.54        38.83       
C           71.45       8.31        37.85       
C           71.31       10.38       36.92       
C           71.87       9.67        37.98       
C           75.54       9.85        41.38       
O           73.21       7.84        40.74       
O           72.76       12.75       38.39       
C           71.55       6.24        39.21       
C           74.74       14.39       39.83       
H           74.21       14.76       39.02       
H           74.49632    14.89825    40.76295    
H           75.8        14.63       39.69       
H           70.68       5.98        38.69       
H           72.32708    5.49889     39.02292    
H           71.3        6.35        40.34       
H           70.21       10.36       35.06       
H           71.59       11.44       36.75       
H           75.42       8.79        41.17       
H           77.27       9.49        42.58       
C           70.47       9.76        35.93       
N           70.73       7.71        36.92       
C           70.23       8.49        36.01       
C           79.99       13.41       43.68       
C           80.0        12.14       44.11       
S           78.63       13.72       42.61       
H           78.76       10.41       44.01       
H           80.66       11.71       44.86       
C           78.88       11.39       43.63       
C           78.13       12.11       42.81       
C           88.63       19.6        46.91       
N           87.57       20.2        46.35       
C           88.69       18.21       47.12       
C           86.52       19.4        46.13       
C           86.38       18.03       46.33       
C           85.04       17.64       45.85       
C           84.44       19.0        45.38       
N           85.38       19.95       45.51       
C           84.38       16.44       45.65       
C           84.88       15.11       46.2        
N           84.17       14.03       45.65       
C           83.04       14.59       45.0        
C           81.98       16.53       44.31       
C           83.07       15.98       44.98       
C           87.5        17.46       46.86       
O           85.98       14.78       46.81       
O           83.41       19.25       44.85       
C           84.21       12.7        46.21       
C           85.26       21.22       44.87       
H           84.62       21.07       44.09       
H           85.06671    22.0934     45.49283    
H           86.18       21.48       44.4        
H           83.22       12.25       46.11       
H           84.85205    12.02973    45.6385     
H           84.73       12.71       47.22       
H           80.17       16.19       43.36       
H           81.89       17.6        44.17       
H           87.53       16.42       46.92       
H           89.56       17.71       47.51       
C           80.98       15.71       43.86       
N           82.17       13.81       44.52       
C           81.05       14.34       44.01       
C           91.37       21.77       48.38       
C           90.91       22.54       47.34       
S           90.66       20.22       48.61       
H           89.18       22.11       45.83       
H           91.08       23.54       47.16       
C           89.84       21.74       46.66       
C           89.75       20.46       47.16       
C           97.14       25.26       57.17       
N           97.06       26.03       56.03       
C           96.56       23.95       57.23       
C           96.36       25.47       55.08       
C           95.78       24.13       54.94       
C           95.17       24.05       53.6        
C           95.45       25.48       53.03       
N           96.25       26.2        53.91       
C           94.48       23.12       52.89       
C           94.27       21.76       53.37       
N           93.33       21.06       52.59       
C           93.11       21.85       51.48       
C           93.74       23.83       50.39       
C           93.82       23.07       51.6        
C           95.87       23.42       56.12       
O           94.74       21.12       54.33       
O           95.17       26.06       51.97       
C           92.78       19.82       52.94       
C           96.89       27.43       53.61       
H           97.48       27.34       52.74       
H           96.25752    28.31548    53.54675    
H           97.66       27.57       54.41       
H           92.87       19.14       52.06       
H           91.73196    19.85541    53.23742    
H           93.37       19.34       53.71       
H           92.78       24.14       48.52       
H           94.36       24.69       50.21       
H           95.41       22.46       56.11       
H           96.65       23.37       58.18       
C           92.88       23.43       49.36       
N           92.27       21.45       50.49       
C           92.23       22.24       49.41       
C           98.97       27.85       59.48       
C           98.99       26.67       60.19       
S           98.12       27.63       57.97       
H           98.11       24.58       59.93       
H           99.26       26.63       61.24       
C           98.28       25.57       59.58       
C           97.87       25.9        58.26       
C           100.91      38.3        63.06       
N           100.79      38.01       61.74       
C           100.97      37.24       63.97       
C           100.76      36.73       61.34       
C           100.7       35.6        62.17       
C           100.39      34.41       61.3        
C           100.34      35.05       59.93       
N           100.48      36.39       60.06       
C           100.2       33.05       61.53       
C           100.16      32.49       62.97       
N           99.97       31.11       62.87       
C           99.68       30.75       61.52       
C           99.69       31.62       59.36       
C           99.83       31.88       60.7        
C           100.86      35.92       63.52       
O           100.17      33.03       64.06       
O           100.24      34.58       58.85       
C           99.93       30.18       63.94       
C           100.45      37.33       58.96       
H           101.01      36.89       58.1        
H           99.41819    37.60228    58.73788    
H           100.98      38.21       59.21       
H           99.36       29.28       63.67       
H           100.90708   29.76635    64.18962    
H           99.47       30.64       64.79       
H           99.3        30.05       57.88       
H           99.69       32.36       58.64       
H           100.97      35.1        64.13       
H           101.16      37.42       65.09       
C           99.5        30.25       58.95       
N           99.48       29.51       61.2        
C           99.39       29.22       59.89       
C           101.08      42.0        64.47       
C           100.56      42.09       63.18       
S           101.39      40.33       64.93       
H           99.93       40.59       61.71       
H           100.25      43.04       62.64       
C           100.4       40.79       62.68       
C           100.88      39.74       63.4        
C           104.21      48.98       72.35       
N           104.32      49.26       71.07       
C           103.99      47.67       72.74       
C           103.97      48.32       70.2        
C           103.66      47.0        70.43       
C           103.4       46.36       69.14       
C           103.71      47.48       68.08       
N           104.0       48.62       68.77       
C           102.94      45.15       68.73       
C           102.84      43.92       69.6        
N           102.53      42.86       68.78       
C           102.11      43.25       67.54       
C           101.97      45.15       66.2        
C           102.38      44.62       67.49       
C           103.58      46.73       71.76       
O           103.07      43.76       70.78       
O           103.69      47.45       66.87       
C           102.58      41.53       69.21       
C           104.31      49.93       68.18       
H           103.99      50.77       68.85       
H           105.34046   49.93       67.82467    
H           103.62      50.08       67.33       
H           103.02      40.93       68.36       
H           101.57596   41.14916    69.39696    
H           103.1       41.6        70.1        
H           101.03      44.7        64.41       
H           101.92      46.17       65.99       
H           103.15      45.73       72.08       
H           104.03      47.46       73.83       
C           101.42      44.27       65.27       
N           101.68      42.41       66.57       
C           101.38      42.94       65.41       
C           104.88      52.62       73.72       
C           104.72      51.8        74.84       
S           104.72      51.69       72.25       
H           104.12      49.67       75.17       
H           104.74      52.15       75.86       
C           104.42      50.4        74.46       
C           104.51      50.2        73.12       
C           103.67      63.55       75.29       
N           103.36      63.0        74.14       
C           104.2       62.78       76.32       
C           103.54      61.71       73.98       
C           103.96      60.78       74.97       
C           104.02      59.47       74.31       
C           103.59      59.77       72.84       
N           103.26      61.11       72.8        
C           104.34      58.18       74.83       
C           104.5       57.89       76.27       
N           104.67      56.51       76.46       
C           104.73      55.89       75.22       
C           104.48      56.29       72.88       
C           104.53      56.83       74.18       
C           104.34      61.39       76.19       
O           104.3       58.62       77.25       
O           103.45      59.05       71.86       
C           104.31      55.85       77.68       
C           102.93      61.91       71.56       
H           103.37      61.43       70.69       
H           101.84633   61.96522    71.45647    
H           103.43      62.98       71.56       
H           105.0       55.05       77.88       
H           103.24435   55.64241    77.77688    
H           104.51      56.48       78.5        
H           104.62      54.52       71.69       
H           104.43      56.91       72.01       
H           104.76      60.84       76.99       
H           104.37      63.2        77.31       
C           104.65      54.93       72.71       
N           104.9       54.62       75.09       
C           104.82      54.09       73.81       
C           103.33      67.22       76.3        
C           102.52      67.01       75.3        
S           104.27      65.77       76.71       
H           101.84      65.29       74.01       
H           101.78      67.72       74.9        
C           102.48      65.67       74.82       
C           103.37      64.9        75.53       
C           107.9       74.94       82.88       
N           107.5       75.24       81.64       
C           107.55      73.73       83.46       
C           106.85      74.32       80.97       
C           106.53      73.02       81.34       
C           105.9       72.37       80.17       
C           105.89      73.41       79.1        
N           106.37      74.6        79.7        
C           105.39      71.05       79.91       
C           105.68      69.84       80.86       
N           105.08      68.7        80.32       
C           104.56      69.01       79.06       
C           104.25      70.77       77.42       
C           104.66      70.37       78.74       
C           106.89      72.74       82.71       
O           106.28      69.84       81.97       
O           105.58      73.44       77.91       
C           105.41      67.31       80.62       
C           106.22      75.97       79.14       
H           106.9       76.79       79.41       
H           105.19878   76.34662    79.19794    
H           106.44      75.8        78.09       
H           106.33      67.26       81.18       
H           104.71357   66.87651    81.33775    
H           105.57      66.78       79.65       
H           103.52      70.09       75.49       
H           104.39      71.74       77.08       
H           106.78      71.78       83.13       
H           107.93      73.55       84.46       
C           103.74      69.76       76.57       
N           103.98      68.1        78.34       
C           103.64      68.42       77.09       
C           110.72      76.95       84.75       
C           110.27      77.65       83.71       
S           109.92      75.38       84.72       
H           108.72      77.55       82.06       
H           110.66      78.59       83.54       
C           109.1       77.17       82.96       
C           108.81      75.93       83.48       
C           118.88      80.37       91.17       
N           118.69      79.03       91.12       
C           118.28      81.27       90.34       
C           117.8       78.66       90.18       
C           116.99      79.52       89.38       
C           116.1       78.65       88.57       
C           116.46      77.29       88.96       
N           117.49      77.34       89.91       
C           115.12      78.9        87.66       
C           114.95      80.19       86.91       
N           113.91      80.06       86.04       
C           113.3       78.82       86.14       
C           113.35      76.84       87.45       
C           113.99      78.11       87.19       
C           117.34      80.87       89.44       
O           115.57      81.21       86.98       
O           116.0       76.3        88.62       
C           113.66      81.08       85.0        
C           118.16      76.24       90.63       
H           119.22      76.49       90.86       
H           117.57848   75.88542    91.481      
H           118.1       75.42       89.98       
H           112.54      81.17       84.91       
H           114.12102   80.83552    84.04303    
H           113.96      82.06       85.4        
H           111.72      75.52       86.77       
H           113.72      76.17       88.17       
H           116.83      81.69       89.0        
H           118.62      82.24       90.23       
C           112.27      76.48       86.65       
N           112.28      78.45       85.37       
C           111.74      77.31       85.67       
C           122.3       80.81       93.09       
C           121.91      82.02       92.61       
S           121.01      79.6        92.72       
H           120.28      82.94       91.59       
H           122.47      82.99       92.72       
C           120.57      81.97       91.98       
C           120.05      80.76       91.82       
H           48.09       1.11        16.99       
H           123.3       80.46       93.13       
