392

C           52.62       12.57       34.72       
N           52.19       13.59       33.96       
C           52.54       11.2        34.31       
C           51.76       13.22       32.8        
C           51.76       11.88       32.2        
C           51.22       12.02       30.81       
C           51.02       13.56       30.63       
N           51.46       14.17       31.84       
C           50.97       11.08       29.8        
C           51.23       9.6         29.95       
N           50.95       9.0         28.7        
C           50.48       9.97        27.81       
C           50.07       12.25       27.35       
C           50.49       11.28       28.34       
C           52.27       10.88       33.03       
O           51.58       8.85        30.86       
O           50.5        14.22       29.73       
C           50.6        7.54        28.57       
C           51.3        15.61       32.13       
H           51.74       16.27       31.37       
H           50.24114    15.85162    32.22238    
H           51.82       15.91       33.04       
H           50.68       7.11        27.61       
H           49.54379    7.39727     28.79837    
H           51.25       6.97        29.28       
H           49.43       12.56       25.42       
H           50.09       13.29       27.54       
H           52.25       9.89        32.77       
H           52.79       10.44       35.05       
C           49.71       11.83       26.09       
N           50.22       9.65        26.56       
C           49.8        10.57       25.65       
C           54.03       12.99       38.22       
C           53.53       14.21       37.88       
S           53.81       11.82       36.96       
H           52.57       15.15       36.23       
H           53.63       15.12       38.54       
C           52.92       14.24       36.64       
C           52.97       12.97       36.02       
C           60.97       9.13        45.82       
N           60.62       10.43       45.83       
C           60.28       8.25        44.92       
C           59.77       10.89       44.99       
C           59.05       10.07       44.05       
C           58.22       10.93       43.24       
C           58.45       12.3        43.85       
N           59.44       12.21       44.84       
C           57.49       10.81       42.07       
C           57.7        9.58        41.12       
N           56.93       9.75        40.0        
C           56.2        10.95       40.09       
C           55.85       12.86       41.45       
C           56.51       11.61       41.33       
C           59.32       8.67        44.12       
O           58.35       8.61        41.19       
O           58.07       13.36       43.4        
C           57.09       8.97        38.77       
C           60.06       13.38       45.45       
H           60.63       13.12       46.32       
H           60.68445    13.93985    44.75377    
H           59.23       13.96       45.74       
H           57.36       9.59        37.94       
H           56.2542     8.34136     38.46283    
H           57.92       8.29        38.92       
H           54.79       14.34       40.35       
H           56.13       13.55       42.23       
H           58.71       7.99        43.62       
H           60.48       7.15        44.91       
C           55.19       13.35       40.39       
N           55.34       11.31       39.12       
C           54.82       12.57       39.33       
C           64.56       9.06        47.24       
C           64.12       7.78        47.16       
S           63.32       10.21       46.71       
H           62.4        6.61        46.49       
H           64.74       6.93        47.4        
C           62.8        7.62        46.61       
C           62.32       8.84        46.35       
C           74.68       11.67       50.5        
N           73.71       12.59       50.53       
C           74.59       10.51       49.75       
C           72.62       12.33       49.97       
C           72.3        11.09       49.25       
C           70.86       11.19       48.86       
C           70.44       12.62       49.22       
N           71.52       13.17       49.88       
C           69.96       10.33       48.29       
C           70.39       9.03        47.63       
N           69.21       8.41        47.2        
C           68.09       9.17        47.44       
C           67.34       11.22       48.24       
C           68.48       10.42       48.0        
C           73.38       10.2        49.1        
O           71.47       8.53        47.58       
O           69.4        13.21       48.97       
C           69.14       6.96        46.93       
C           71.39       14.47       50.5        
H           70.6        14.97       50.0        
H           71.1373     14.49808    51.55993    
H           72.33       14.96       50.32       
H           68.39       6.58        47.52       
H           68.90888    6.68414     45.90112    
H           70.01       6.37        47.32       
H           65.22       11.52       48.07       
H           67.45       12.24       48.61       
H           73.32       9.32        48.5        
H           75.41       9.72        49.73       
C           66.06       10.83       47.97       
N           66.89       8.68        47.25       
C           65.89       9.57        47.45       
C           77.64       13.57       52.22       
C           77.89       12.26       52.34       
S           76.15       13.76       51.3        
H           76.87       10.31       51.86       
H           78.79       11.86       52.82       
C           76.86       11.43       51.8        
C           75.87       12.09       51.17       
C           83.47       22.88       54.63       
N           82.42       22.9        53.76       
C           83.86       21.66       55.17       
C           81.79       21.77       53.53       
C           82.04       20.51       54.14       
C           81.03       19.55       53.55       
C           80.3        20.43       52.55       
N           80.67       21.75       52.69       
C           80.81       18.12       53.75       
C           81.81       17.15       54.45       
N           81.46       15.83       54.15       
C           80.25       15.72       53.44       
C           78.85       17.18       52.14       
C           79.89       17.1        53.1        
C           83.17       20.52       54.97       
O           82.81       17.42       55.14       
O           79.44       20.15       51.76       
C           82.14       14.75       54.8        
C           80.13       22.89       52.02       
H           79.9        22.58       51.03       
H           79.25333    23.30678    52.51582    
H           80.81       23.72       52.02       
H           81.33       13.99       54.93       
H           82.90864    14.28183    54.18509    
H           82.64       15.12       55.72       
H           77.18       16.13       51.27       
H           78.62       18.02       51.59       
H           83.61       19.62       55.39       
H           84.74       21.58       55.77       
C           78.09       16.03       51.89       
N           79.55       14.67       53.16       
C           78.38       14.83       52.49       
C           85.78       26.09       54.74       
C           84.52       26.43       54.21       
S           85.82       24.38       55.03       
H           82.52       25.44       54.01       
H           84.34       27.46       53.88       
C           83.6        25.33       54.3        
C           84.14       24.16       54.74       
C           94.36       32.41       57.39       
N           93.61       32.83       56.33       
C           94.21       31.12       57.87       
C           92.67       32.01       55.88       
C           92.36       30.71       56.35       
C           91.19       30.25       55.59       
C           90.81       31.42       54.7        
N           91.76       32.36       54.98       
C           90.49       29.05       55.67       
C           91.14       27.75       56.16       
N           90.31       26.67       55.89       
C           89.08       27.21       55.65       
C           87.94       29.16       55.03       
C           89.15       28.6        55.41       
C           93.19       30.28       57.41       
O           92.32       27.63       56.48       
O           89.81       31.71       53.99       
C           90.68       25.29       56.08       
C           92.02       33.44       54.0        
H           91.29       33.28       53.17       
H           91.94314    34.44611    54.41223    
H           92.98       33.13       53.55       
H           90.16       24.66       55.43       
H           90.42269    24.90403    57.06637    
H           91.72       25.19       55.86       
H           85.85       28.84       54.77       
H           87.8        30.2        54.98       
H           93.12       29.32       57.83       
H           94.93       30.74       58.56       
C           86.79       28.34       54.93       
N           88.07       26.42       55.38       
C           86.92       26.99       55.03       
C           96.81       35.37       57.97       
C           96.94       34.49       59.03       
S           95.71       34.71       56.77       
H           96.09       32.48       59.53       
H           97.29       34.72       60.05       
C           96.18       33.3        58.82       
C           95.39       33.32       57.72       
C           99.79       46.1        57.48       
N           99.34       45.43       56.37       
C           99.86       45.34       58.64       
C           99.15       44.13       56.52       
C           99.19       43.32       57.63       
C           98.73       41.91       57.32       
C           98.45       42.09       55.81       
N           98.74       43.39       55.43       
C           98.54       40.8        58.02       
C           99.04       40.6        59.42       
N           98.81       39.27       59.77       
C           98.15       38.65       58.77       
C           97.2        38.88       56.61       
C           97.93       39.49       57.7        
C           99.74       44.0        58.72       
O           99.39       41.44       60.25       
O           98.08       41.29       54.98       
C           99.12       38.65       61.05       
C           98.71       43.69       54.02       
H           99.02       42.88       53.41       
H           97.77134    44.08912    53.63566    
H           99.45       44.49       53.97       
H           98.68       37.68       61.29       
H           100.20471   38.62236    61.15363    
H           98.8        39.37       61.85       
H           96.46       37.03       55.79       
H           96.94       39.49       55.8        
H           99.88       43.52       59.64       
H           100.3       45.83       59.53       
C           96.96       37.49       56.65       
N           97.78       37.33       58.82       
C           97.14       36.76       57.8        
C           100.21      49.95       57.87       
C           99.7        49.71       56.67       
S           100.4       48.46       58.75       
H           98.99       47.93       55.51       
H           99.33       50.49       56.02       
C           99.41       48.33       56.4        
C           99.88       47.54       57.39       
C           103.58      57.3        65.49       
N           103.25      57.9        64.33       
C           103.52      55.93       65.81       
C           102.9       56.95       63.39       
C           102.81      55.5        63.54       
C           102.32      54.95       62.22       
C           102.24      56.19       61.29       
N           102.58      57.34       62.03       
C           101.88      53.69       61.77       
C           102.12      52.35       62.59       
N           101.73      51.28       61.93       
C           101.27      51.63       60.72       
C           100.75      53.44       59.33       
C           101.24      53.03       60.57       
C           103.17      54.99       64.81       
O           102.72      52.27       63.65       
O           101.71      56.33       60.19       
C           101.61      49.99       62.6        
C           102.19      58.66       61.68       
H           102.03      59.29       62.56       
H           102.88457   59.08687    60.95649    
H           101.27      58.67       61.12       
H           101.62      49.25       61.82       
H           100.68908   49.88123    63.17286    
H           102.5       49.97       63.22       
H           100.19      52.77       57.32       
H           100.89      54.45       58.97       
H           103.25      53.88       65.04       
H           103.93      55.6        66.75       
C           100.41      52.5        58.39       
N           100.84      50.75       59.87       
C           100.47      51.12       58.68       
C           104.69      60.38       67.73       
C           104.52      59.31       68.5        
S           104.3       59.97       66.06       
H           104.2       57.16       68.34       
H           104.85      59.29       69.53       
C           104.25      58.12       67.86       
C           103.96      58.33       66.52       
C           109.58      69.81       70.58       
N           109.63      69.35       69.3        
C           108.82      69.24       71.55       
C           109.11      68.16       69.07       
C           108.34      67.37       69.99       
C           107.97      66.18       69.26       
C           108.64      66.35       67.91       
N           109.09      67.64       67.85       
C           107.21      65.06       69.61       
C           106.82      64.74       71.03       
N           106.16      63.5        71.0        
C           105.93      63.07       69.71       
C           106.25      63.77       67.45       
C           106.48      64.03       68.8        
C           108.16      68.01       71.23       
O           107.07      65.37       72.09       
O           108.61      65.64       66.9        
C           105.93      62.7        72.16       
C           110.06      67.83       66.83       
H           110.5       66.87       66.51       
H           109.68762   68.44127    66.00794    
H           110.88      68.32       67.32       
H           106.31      61.68       72.01       
H           104.92555   62.62926    72.57734    
H           106.57      63.15       72.94       
H           105.56      62.37       65.89       
H           106.68      64.37       66.64       
H           107.67      67.56       72.04       
H           108.76      69.6        72.58       
C           105.59      62.64       67.02       
N           105.32      61.99       69.33       
C           105.16      61.77       68.02       
C           111.15      73.22       71.61       
C           111.16      73.15       70.26       
S           110.5       71.79       72.35       
H           110.54      71.64       68.76       
H           111.52      73.91       69.65       
C           110.63      71.94       69.79       
C           110.2       71.09       70.75       
C           110.87      82.04       78.61       
N           110.81      82.21       77.28       
C           111.23      80.73       79.11       
C           111.11      81.15       76.49       
C           111.41      79.79       76.89       
C           111.48      78.95       75.64       
C           111.25      79.99       74.54       
N           111.11      81.28       75.11       
C           111.48      77.59       75.38       
C           111.83      76.54       76.44       
N           111.58      75.28       75.83       
C           111.4       75.36       74.52       
C           111.18      76.87       72.7        
C           111.35      76.71       74.11       
C           111.41      79.63       78.27       
O           112.04      76.62       77.62       
O           111.2       79.9        73.35       
C           111.81      74.03       76.53       
C           110.68      82.5        74.34       
H           111.23      83.33       74.8        
H           109.60884   82.70129    74.32562    
H           110.96      82.51       73.29       
H           112.42      74.3        77.45       
H           110.84383   73.56508    76.72614    
H           112.53      73.55       75.88       
H           110.79      75.85       70.81       
H           111.16      77.85       72.19       
H           111.65      78.71       78.76       
H           111.3       80.61       80.13       
C           111.05      75.73       71.83       
N           111.32      74.27       73.76       
C           111.2       74.46       72.41       
C           110.83      85.06       81.25       
C           110.35      85.57       79.98       
S           111.32      83.4        81.1        
H           110.06      84.67       77.95       
H           110.1       86.61       79.74       
C           110.32      84.51       78.99       
C           110.7       83.24       79.45       
C           111.46      91.48       90.31       
N           111.27      90.2        90.48       
C           111.77      92.01       89.05       
C           111.22      89.57       89.31       
C           111.36      89.96       87.93       
C           111.06      88.74       87.14       
C           110.91      87.64       88.15       
N           110.96      88.2        89.4        
C           110.96      88.66       85.71       
C           110.75      89.77       84.73       
N           110.73      89.17       83.46       
C           110.84      87.82       83.48       
C           111.37      86.06       84.95       
C           111.02      87.44       84.82       
C           111.74      91.31       87.85       
O           110.69      91.05       84.91       
O           110.84      86.41       87.98       
C           110.65      89.99       82.31       
C           110.82      87.36       90.59       
H           110.12      86.52       90.33       
H           111.78036   87.10342    91.03719    
H           110.17      87.9        91.32       
H           110.3       89.55       81.43       
H           111.5915    90.42509    81.97477    
H           109.94      90.81       82.65       
H           111.4       84.18       83.94       
H           111.53      85.54       85.84       
H           111.98      91.7        86.87       
H           112.1       93.1        88.95       
C           111.32      85.26       83.8        
N           110.87      87.06       82.39       
C           111.03      85.74       82.52       
C           111.68      93.25       93.77       
C           111.54      94.29       92.88       
S           111.71      91.66       93.05       
H           111.3       94.35       90.74       
H           111.69      95.33       93.14       
C           111.42      93.71       91.58       
C           111.46      92.34       91.49       
H           50.07       10.5        24.59       
H           112.09      93.44       94.81       
