392

C           54.2        4.62        19.19       
N           53.74       5.04        18.0        
C           53.43       4.23        20.28       
C           52.41       4.94        17.86       
C           51.47       4.45        18.87       
C           50.09       4.58        18.31       
C           50.38       5.08        16.88       
N           51.78       5.27        16.72       
C           48.78       4.29        18.79       
C           48.55       3.69        20.21       
N           47.2        3.39        20.4        
C           46.51       3.73        19.26       
C           46.71       4.66        17.05       
C           47.36       4.28        18.25       
C           52.06       4.18        20.1        
O           49.32       3.6         21.15       
O           49.56       5.36        16.0        
C           46.58       2.68        21.54       
C           52.33       6.0         15.59       
H           51.64       5.86        14.78       
H           52.53827    7.03391     15.86521    
H           53.19       5.45        15.22       
H           45.98       1.89        21.11       
H           46.01257    3.41766     22.10743    
H           47.33       2.22        22.12       
H           44.79       4.8         16.04       
H           47.22       4.98        16.21       
H           51.42       3.89        20.85       
H           53.77       3.82        21.2        
C           45.32       4.46        16.95       
N           45.24       3.45        19.04       
C           44.61       3.98        17.97       
C           58.07       4.63        19.69       
C           57.76       5.57        18.7        
S           56.64       3.95        20.41       
H           56.0        6.18        17.53       
H           58.51       6.01        18.04       
C           56.35       5.66        18.46       
C           55.64       4.85        19.29       
C           66.96       -0.41       24.01       
N           67.14       0.79        23.36       
C           65.72       -1.05       23.97       
C           66.12       1.42        22.9        
C           64.79       0.92        22.86       
C           63.95       1.81        22.03       
C           64.83       3.02        21.91       
N           66.13       2.7         22.38       
C           62.6        1.7         21.59       
C           61.75       0.46        21.52       
N           60.5        0.83        21.01       
C           60.4        2.18        20.75       
C           61.62       4.19        20.74       
C           61.68       2.79        21.05       
C           64.65       -0.38       23.36       
O           62.03       -0.74       21.76       
O           64.59       4.17        21.49       
C           59.61       -0.14       20.42       
C           67.24       3.53        21.96       
H           67.05       3.91        21.01       
H           67.42639    4.29627     22.71246    
H           68.14       2.83        21.92       
H           59.05       0.26        19.57       
H           58.89213    -0.48151    21.16575    
H           60.21       -0.9        19.95       
H           60.38       5.94        20.06       
H           62.49       4.84        20.91       
H           63.69       -0.85       23.45       
H           65.5        -2.01       24.38       
C           60.44       4.83        20.26       
N           59.3        2.79        20.33       
C           59.33       4.08        20.05       
C           70.4        -1.16       25.81       
C           69.76       -2.42       25.53       
S           69.48       0.07        24.95       
H           67.88       -3.16       24.64       
H           70.11       -3.39       25.94       
C           68.52       -2.3        24.83       
C           68.19       -1.01       24.46       
C           79.49       0.73        31.87       
N           78.84       1.83        31.35       
C           79.27       -0.56       31.41       
C           77.7        1.57        30.68       
C           77.19       0.27        30.38       
C           75.88       0.48        29.68       
C           75.75       2.05        29.55       
N           76.81       2.57        30.22       
C           74.9        -0.39       29.14       
C           74.95       -1.86       29.44       
N           73.88       -2.46       28.84       
C           73.2        -1.6        28.03       
C           73.19       0.71        27.38       
C           73.81       -0.31       28.16       
C           78.07       -0.75       30.74       
O           75.58       -2.38       30.4        
O           74.82       2.76        29.12       
C           73.82       -3.91       28.72       
C           77.27       3.94        29.95       
H           77.01       4.2         28.94       
H           76.92766    4.63895     30.71314    
H           78.33       3.94        30.03       
H           72.74       -4.2        28.55       
H           74.3962     -4.24026    27.8557     
H           74.21       -4.35       29.62       
H           71.67       1.22        25.97       
H           73.55       1.68        27.46       
H           77.9        -1.78       30.42       
H           79.92       -1.42       31.65       
C           72.12       0.41        26.51       
N           72.13       -1.88       27.22       
C           71.56       -0.85       26.56       
C           82.65       2.35        33.56       
C           82.51       1.06        34.15       
S           81.37       2.63        32.43       
H           81.04       -0.62       33.98       
H           83.13       0.77        35.05       
C           81.4        0.31        33.59       
C           80.71       1.0         32.61       
C           89.8        9.34        38.27       
N           89.32       9.75        37.0        
C           89.46       8.17        38.96       
C           88.45       8.85        36.5        
C           87.94       7.64        37.1        
C           86.98       7.1         36.16       
C           86.95       8.13        35.01       
N           87.83       9.16        35.28       
C           86.23       5.95        36.14       
C           86.17       4.97        37.31       
N           85.26       4.05        37.07       
C           84.78       4.09        35.76       
C           84.91       5.43        33.84       
C           85.32       5.28        35.16       
C           88.58       7.29        38.36       
O           86.84       5.0         38.31       
O           86.31       8.09        33.95       
C           85.1        2.89        37.92       
C           88.33       10.09       34.31       
H           88.13       9.64        33.31       
H           87.89232    11.08734    34.35305    
H           89.39       10.18       34.39       
H           85.96       2.89        38.54       
H           84.20595    2.99477     38.53466    
H           85.06       1.97        37.41       
H           83.69       4.66        32.22       
H           85.4        6.07        33.14       
H           88.38       6.41        38.85       
H           89.86       7.86        39.88       
C           83.97       4.52        33.25       
N           84.01       3.14        35.24       
C           83.56       3.41        34.01       
C           92.74       11.07       40.31       
C           92.74       11.59       39.03       
S           91.38       10.0        40.4        
H           91.43       11.31       37.15       
H           93.43       12.4        38.68       
C           91.65       11.08       38.21       
C           90.99       10.08       38.72       
C           95.08       15.55       49.97       
N           95.03       16.28       48.84       
C           94.82       14.18       49.98       
C           94.77       15.53       47.77       
C           94.58       14.18       47.58       
C           94.47       13.92       46.12       
C           94.73       15.29       45.53       
N           94.88       16.18       46.54       
C           94.3        12.85       45.33       
C           94.39       11.42       45.88       
N           94.28       10.6        44.81       
C           93.92       11.3        43.63       
C           93.53       13.49       42.85       
C           93.93       12.7        43.89       
C           94.49       13.52       48.79       
O           94.66       10.97       47.04       
O           94.88       15.69       44.41       
C           94.52       9.22        44.84       
C           95.46       17.48       46.27       
H           96.16       17.46       45.43       
H           94.72408    18.28022    46.19141    
H           96.12       17.77       47.11       
H           95.3        8.92        44.09       
H           93.67383    8.56745     44.62487    
H           94.87       8.99        45.85       
H           93.0        13.69       40.82       
H           93.42       14.55       43.03       
H           94.27       12.47       48.84       
H           95.07       13.66       50.97       
C           93.32       12.94       41.62       
N           93.61       10.68       42.45       
C           93.38       11.59       41.47       
C           96.71       17.87       52.54       
C           96.55       16.72       53.16       
S           96.15       17.86       50.88       
H           95.4        14.82       52.61       
H           96.79       16.52       54.25       
C           95.81       15.79       52.34       
C           95.67       16.22       51.09       
C           101.81      26.67       56.63       
N           101.53      26.59       55.34       
C           101.53      25.63       57.49       
C           101.05      25.49       54.88       
C           100.7       24.36       55.62       
C           100.04      23.38       54.71       
C           100.18      24.09       53.33       
N           100.79      25.28       53.49       
C           99.51       22.11       54.87       
C           99.93       21.24       56.04       
N           99.36       20.01       55.82       
C           98.51       20.06       54.73       
C           97.78       21.41       52.91       
C           98.58       21.28       54.09       
C           101.02      24.4        57.01       
O           100.66      21.43       56.96       
O           99.78       23.68       52.23       
C           99.69       18.8        56.55       
C           100.85      26.33       52.49       
H           101.09      25.98       51.56       
H           99.89788    26.85058    52.38725    
H           101.76      26.95       52.66       
H           98.85       18.15       56.56       
H           100.50238   18.25841    56.06542    
H           99.9        19.2        57.5        
H           96.57       20.52       51.49       
H           97.7        22.37       52.39       
H           100.7       23.72       57.67       
H           101.78      25.76       58.55       
C           97.19       20.29       52.39       
N           97.86       18.97       54.25       
C           97.33       19.06       53.02       
C           102.17      30.18       58.43       
C           102.47      30.3        57.04       
S           101.97      28.46       58.7        
H           102.53      29.04       55.18       
H           102.55      31.3        56.46       
C           102.38      29.07       56.25       
C           102.14      27.98       57.04       
C           104.28      37.48       66.57       
N           104.28      37.83       65.27       
C           103.93      36.21       66.97       
C           103.79      37.0        64.39       
C           103.42      35.66       64.59       
C           103.16      35.0        63.24       
C           103.35      36.22       62.28       
N           103.73      37.34       63.02       
C           102.87      33.72       62.83       
C           102.88      32.5        63.74       
N           102.67      31.36       62.98       
C           102.33      31.68       61.68       
C           102.39      33.46       60.11       
C           102.56      33.12       61.48       
C           103.48      35.3        65.92       
O           103.09      32.46       64.95       
O           103.24      36.33       61.11       
C           103.18      30.06       63.46       
C           104.1       38.57       62.37       
H           104.73      38.35       61.51       
H           103.20246   39.15376    62.16568    
H           104.62      39.2        63.1        
H           103.88      29.61       62.76       
H           102.36773   29.36481    63.67221    
H           103.81      30.31       64.33       
H           101.96      32.76       58.07       
H           102.59      34.49       59.8        
H           103.23      34.24       66.24       
H           103.94      35.97       68.05       
C           102.05      32.52       59.09       
N           102.17      30.76       60.75       
C           102.18      31.2        59.44       
C           106.28      40.35       68.4        
C           106.21      39.33       69.27       
S           105.39      39.98       66.93       
H           105.4       37.37       69.37       
H           106.76      39.28       70.16       
C           105.43      38.25       68.73       
C           104.92      38.41       67.5        
C           109.93      50.62       70.87       
N           109.51      50.43       69.59       
C           109.86      49.61       71.82       
C           109.1       49.16       69.35       
C           109.02      48.02       70.25       
C           108.59      46.82       69.48       
C           108.39      47.37       68.16       
N           108.67      48.69       68.13       
C           108.45      45.52       69.8        
C           109.1       44.84       70.99       
N           108.81      43.45       70.99       
C           108.02      43.13       69.92       
C           107.04      44.02       68.03       
C           107.81      44.33       69.17       
C           109.47      48.33       71.53       
O           109.81      45.27       71.93       
O           108.12      46.88       67.09       
C           109.25      42.53       72.04       
C           108.19      49.59       67.1        
H           107.7       50.51       67.41       
H           108.96819   49.86954    66.38981    
H           107.45      49.05       66.48       
H           109.45      41.53       71.6        
H           108.46628   42.40664    72.78744    
H           110.15      42.91       72.42       
H           106.15      42.57       66.8        
H           106.68      44.82       67.38       
H           109.49      47.54       72.27       
H           110.32      49.84       72.82       
C           106.59      42.7        67.76       
N           107.6       41.9        69.69       
C           106.85      41.68       68.62       
C           109.82      54.1        72.78       
C           109.88      54.3        71.4        
S           109.95      52.37       73.06       
H           110.12      53.14       69.46       
H           109.84      55.28       70.94       
C           110.04      53.18       70.57       
C           110.03      52.02       71.34       
C           108.18      60.35       81.98       
N           108.53      60.92       80.74       
C           108.08      58.98       82.07       
C           108.77      60.06       79.72       
C           108.78      58.62       79.75       
C           109.11      58.16       78.37       
C           109.27      59.5        77.69       
N           109.02      60.56       78.49       
C           109.31      56.96       77.7        
C           109.47      55.72       78.51       
N           109.55      54.66       77.52       
C           109.58      55.11       76.25       
C           109.08      57.11       75.0        
C           109.25      56.54       76.25       
C           108.37      58.08       80.98       
O           109.66      55.55       79.62       
O           109.45      59.65       76.51       
C           110.09      53.37       77.81       
C           109.44      61.91       78.14       
H           110.11      62.36       78.88       
H           108.64725   62.57911    77.80544    
H           110.12      61.69       77.28       
H           110.64      53.52       78.75       
H           109.42261   52.50996    77.75496    
H           110.89      53.12       77.17       
H           109.01      56.6        72.83       
H           108.76      58.14       74.95       
H           108.21      57.0        81.17       
H           107.74      58.57       83.0        
C           109.23      56.31       73.85       
N           109.71      54.37       75.2        
C           109.63      54.96       73.94       
C           107.01      63.32       84.2        
C           106.3       62.25       84.64       
S           108.06      62.93       82.89       
H           106.08      60.22       83.96       
H           105.58      62.28       85.43       
C           106.64      61.09       83.91       
C           107.59      61.26       82.93       
C           108.06      74.17       86.16       
N           107.09      73.5        86.73       
C           108.98      73.56       85.36       
C           107.15      72.18       86.57       
C           107.93      71.45       85.69       
C           107.47      70.04       85.81       
C           106.36      70.08       86.78       
N           106.19      71.33       87.15       
C           107.81      68.87       85.13       
C           108.58      68.83       83.82       
N           108.6       67.59       83.25       
C           107.96      66.71       84.12       
C           106.67      66.57       86.09       
C           107.4       67.45       85.21       
C           108.86      72.21       85.06       
O           109.11      69.79       83.24       
O           105.61      69.13       87.09       
C           109.33      67.23       82.07       
C           105.01      71.81       87.79       
H           104.1       71.26       87.53       
H           104.99598   71.72587    88.87666    
H           104.88      72.81       87.46       
H           108.84      66.35       81.6        
H           110.3991    67.10256    82.23992    
H           109.24      67.9        81.22       
H           106.11      64.53       86.43       
H           106.34      66.9        87.05       
H           109.6       71.72       84.37       
H           109.75      74.14       84.81       
C           106.57      65.24       85.75       
N           107.81      65.49       83.78       
C           107.06      64.72       84.59       
C           107.22      77.78       87.32       
C           108.49      77.78       86.75       
S           106.67      76.17       87.35       
H           109.95      76.29       85.76       
H           109.11      78.66       86.81       
C           108.97      76.49       86.23       
C           108.04      75.54       86.48       
H           43.72       4.49        18.28       
H           106.55      78.62       87.29       
