392

C           52.15       9.57        32.24       
N           51.39       10.37       31.52       
C           51.65       8.37        32.73       
C           50.1        10.09       31.39       
C           49.35       9.0         31.97       
C           47.95       9.28        31.63       
C           47.96       10.61       30.93       
N           49.26       11.02       30.8        
C           46.76       8.62        32.04       
C           46.72       7.18        32.57       
N           45.4        6.89        32.94       
C           44.55       7.86        32.38       
C           44.47       9.95        31.38       
C           45.3        8.94        31.88       
C           50.26       8.1         32.6        
O           47.65       6.47        32.95       
O           47.02       11.21       30.42       
C           45.02       5.88        33.89       
C           49.66       12.27       30.12       
H           49.18       12.45       29.14       
H           49.66682    13.17057    30.73403    
H           50.77       12.07       29.82       
H           44.13       5.24        33.61       
H           44.93719    6.23196     34.91828    
H           45.86       5.1         33.91       
H           42.37       10.77       31.16       
H           44.9        10.87       31.03       
H           49.85       7.19        33.0        
H           52.25       7.63        33.31       
C           43.06       9.89        31.47       
N           43.24       7.77        32.5        
C           42.46       8.78        32.08       
C           56.08       9.6         32.47       
C           55.79       10.57       31.6        
S           54.65       8.78        33.15       
H           53.89       11.51       30.81       
H           56.53       11.24       31.12       
C           54.35       10.76       31.5        
C           53.6        9.87        32.23       
C           64.57       3.79        36.35       
N           64.85       4.95        35.73       
C           63.35       3.34        36.67       
C           63.84       5.6         35.27       
C           62.5        5.22        35.38       
C           61.66       6.28        34.75       
C           62.77       7.15        34.11       
N           64.02       6.76        34.51       
C           60.33       6.59        34.64       
C           59.28       5.9         35.49       
N           58.08       6.49        35.22       
C           58.18       7.43        34.2        
C           59.61       8.41        32.71       
C           59.53       7.52        33.79       
C           62.24       3.99        36.05       
O           59.45       5.18        36.45       
O           62.58       8.12        33.35       
C           56.93       6.31        36.1        
C           65.28       7.31        34.05       
H           65.15       7.59        32.95       
H           65.61       8.1063      34.71717    
H           66.06       6.55        34.12       
H           56.08       6.04        35.45       
H           56.68335    7.17681     36.71311    
H           57.15       5.43        36.67       
H           58.66       9.91        31.51       
H           60.48       8.68        32.27       
H           61.2        3.61        36.15       
H           63.17       2.43        37.18       
C           58.53       9.18        32.28       
N           57.1        8.07        33.77       
C           57.33       9.07        32.9        
C           68.04       2.72        37.91       
C           67.14       1.69        38.09       
S           67.31       3.96        37.01       
H           64.9        1.38        37.69       
H           67.37       0.79        38.63       
C           65.85       1.96        37.58       
C           65.74       3.11        36.95       
C           78.35       2.05        41.94       
N           77.82       3.24        41.68       
C           77.54       0.92        41.77       
C           76.58       3.37        41.29       
C           75.59       2.31        41.2        
C           74.36       2.93        40.67       
C           74.75       4.39        40.42       
N           76.09       4.58        40.75       
C           73.15       2.4         40.39       
C           72.79       0.98        40.9        
N           71.49       0.77        40.48       
C           71.0        1.83        39.71       
C           71.49       3.97        38.88       
C           71.96       2.86        39.64       
C           76.24       1.06        41.38       
O           73.4        0.15        41.58       
O           74.11       5.29        39.96       
C           70.71       -0.44       40.78       
C           76.88       5.66        40.23       
H           77.71       5.87        40.89       
H           77.39837    5.35466     39.32107    
H           76.25       6.53        40.16       
H           69.66       -0.16       41.02       
H           70.78067    -1.14671    39.95315    
H           71.07       -0.96       41.69       
H           69.76       4.92        37.74       
H           72.07       4.81        38.71       
H           75.72       0.18        41.1        
H           78.01       -0.11       41.79       
C           70.17       4.03        38.31       
N           69.76       1.92        39.22       
C           69.36       2.93        38.52       
C           82.18       2.61        42.62       
C           81.99       1.28        42.63       
S           80.71       3.44        42.27       
H           80.3        -0.14       42.61       
H           82.88       0.65        42.78       
C           80.59       0.93        42.56       
C           79.75       2.03        42.29       
C           91.1        8.91        44.18       
N           90.64       8.59        42.9        
C           90.46       8.38        45.22       
C           89.72       7.69        42.75       
C           89.09       6.99        43.8        
C           88.08       6.16        43.2        
C           88.18       6.53        41.71       
N           89.18       7.47        41.53       
C           87.05       5.33        43.65       
C           87.17       4.57        45.01       
N           86.05       3.7         45.13       
C           85.26       3.87        44.01       
C           84.95       4.98        42.01       
C           85.76       4.86        43.16       
C           89.47       7.4         45.07       
O           88.21       4.61        45.7        
O           87.4        6.21        40.81       
C           86.07       2.6         46.15       
C           89.84       7.59        40.24       
H           89.4        6.83        39.63       
H           89.62598    8.54595     39.76203    
H           90.9        7.43        40.46       
H           87.12       2.41        46.53       
H           85.30465    2.72875     46.91535    
H           85.87       1.7         45.54       
H           83.09       4.47        40.91       
H           85.28       5.55        41.27       
H           88.94       6.92        45.9        
H           90.62       8.72        46.23       
C           83.7        4.31        41.83       
N           84.15       3.1         43.83       
C           83.37       3.39        42.77       
C           93.58       11.81       44.83       
C           92.67       12.18       43.91       
S           93.36       10.12       45.17       
H           91.06       11.33       42.77       
H           92.48       13.14       43.49       
C           91.88       11.19       43.43       
C           91.94       10.1        44.17       
C           100.05      16.74       52.32       
N           99.69       17.43       51.23       
C           99.67       15.42       52.54       
C           99.06       16.79       50.3        
C           98.63       15.48       50.31       
C           97.77       15.28       49.06       
C           97.83       16.72       48.45       
N           98.6        17.53       49.26       
C           97.17       14.11       48.53       
C           97.39       12.64       49.04       
N           96.5        11.79       48.41       
C           95.83       12.52       47.37       
C           95.6        14.61       46.4        
C           96.22       13.88       47.42       
C           98.92       14.8        51.53       
O           98.24       12.23       49.78       
O           97.26       17.03       47.39       
C           96.63       10.33       48.48       
C           98.83       18.93       48.99       
H           98.95       19.08       47.9        
H           97.97401    19.50546    49.34247    
H           99.74       19.27       49.57       
H           97.07       9.96        47.62       
H           95.71801    9.76877     48.68344    
H           97.27       10.06       49.35       
H           94.43       14.42       44.51       
H           95.85       15.64       46.31       
H           98.46       13.84       51.7        
H           99.78       14.89       53.41       
C           94.8        13.97       45.44       
N           95.01       11.88       46.56       
C           94.55       12.59       45.55       
C           101.21      19.61       54.56       
C           101.79      18.53       55.06       
S           100.11      19.2        53.27       
H           101.69      16.35       54.72       
H           102.41      18.62       55.99       
C           101.3       17.34       54.43       
C           100.58      17.57       53.33       
C           103.38      30.15       57.55       
N           102.21      29.84       56.95       
C           104.24      29.1        57.84       
C           102.06      28.6        56.59       
C           102.89      27.42       56.78       
C           102.21      26.2        56.27       
C           100.88      26.79       55.8        
N           100.9       28.15       56.0        
C           102.55      24.84       56.1        
C           103.91      24.36       56.46       
N           103.96      23.01       56.09       
C           102.71      22.56       55.66       
C           100.52      23.23       55.34       
C           101.81      23.64       55.65       
C           104.02      27.75       57.52       
O           104.89      24.92       56.86       
O           99.96       26.26       55.2        
C           105.26      22.31       55.86       
C           99.64       28.91       55.94       
H           99.71       29.79       56.55       
H           99.35038    29.28438    54.95813    
H           98.88       28.24       56.32       
H           106.13      22.94       55.66       
H           105.54639   21.74404    56.74644    
H           105.17      21.58       55.08       
H           99.33       21.45       54.98       
H           99.73       23.97       55.47       
H           104.8       27.03       57.87       
H           105.27      29.34       58.29       
C           100.31      21.87       54.96       
N           102.59      21.32       55.33       
C           101.3       20.98       54.99       
C           104.33      33.47       59.33       
C           103.44      33.79       58.33       
S           104.79      31.8        59.28       
H           102.37      32.6        56.75       
H           103.07      34.76       58.13       
C           103.03      32.61       57.57       
C           103.66      31.51       57.98       
C           107.73      40.09       67.42       
N           106.72      40.41       66.53       
C           108.55      39.02       67.16       
C           106.54      39.57       65.53       
C           107.22      38.38       65.27       
C           106.53      37.78       64.12       
C           105.37      38.79       63.83       
N           105.5       39.83       64.65       
C           106.62      36.61       63.39       
C           107.52      35.47       63.82       
N           107.28      34.34       63.09       
C           106.25      34.72       62.12       
C           105.02      36.62       61.38       
C           105.91      36.08       62.28       
C           108.21      38.15       66.13       
O           108.2       35.37       64.85       
O           104.48      38.8        63.04       
C           108.12      33.23       62.91       
C           104.69      41.05       64.57       
H           104.48      41.24       63.53       
H           103.74155   41.06395    65.10699    
H           105.18      41.89       64.94       
H           108.42      33.06       61.89       
H           107.72652   32.28143    63.27537    
H           109.08      33.44       63.44       
H           103.95      36.16       59.67       
H           104.86      37.67       61.32       
H           108.83      37.22       66.13       
H           109.36      38.7        67.74       
C           104.61      35.75       60.38       
N           105.78      33.88       61.19       
C           104.93      34.38       60.31       
C           107.49      42.89       70.01       
C           108.29      41.92       70.53       
S           107.09      42.55       68.38       
H           109.3       40.1        69.88       
H           108.8       41.95       71.48       
C           108.62      40.9        69.62       
C           107.9       41.04       68.51       
C           104.36      51.76       75.49       
N           103.69      51.53       74.35       
C           105.48      51.08       75.92       
C           104.23      50.57       73.59       
C           105.37      49.81       73.88       
C           105.57      48.82       72.77       
C           104.41      49.09       71.83       
N           103.75      50.19       72.35       
C           106.51      47.81       72.64       
C           107.87      47.67       73.34       
N           108.42      46.47       72.99       
C           107.56      45.77       72.18       
C           105.53      45.94       70.93       
C           106.42      46.58       71.83       
C           106.07      50.15       75.07       
O           108.47      48.55       73.91       
O           104.03      48.58       70.78       
C           109.61      45.93       73.55       
C           102.4       50.44       71.92       
H           101.73      50.67       72.76       
H           102.35712   51.31898    71.27684    
H           102.02      49.57       71.36       
H           110.12      45.31       72.82       
H           109.46365   45.13552    74.28176    
H           110.25      46.74       73.91       
H           105.21      44.41       69.5        
H           104.59      46.34       70.68       
H           106.92      49.65       75.35       
H           105.83      51.28       76.93       
C           105.82      44.7        70.3        
N           107.77      44.53       71.66       
C           106.96      44.08       70.65       
C           103.37      54.85       77.68       
C           102.24      54.48       77.0        
S           104.68      53.76       77.31       
H           101.72      52.8        75.7        
H           101.27      54.98       76.94       
C           102.47      53.25       76.31       
C           103.73      52.81       76.34       
C           105.88      64.6        81.44       
N           105.14      64.42       80.35       
C           106.21      63.59       82.34       
C           104.99      63.16       79.99       
C           105.42      62.01       80.66       
C           105.03      60.87       79.86       
C           104.54      61.44       78.51       
N           104.41      62.8        78.73       
C           105.19      59.54       80.04       
C           106.18      58.76       80.86       
N           106.12      57.37       80.61       
C           105.07      57.18       79.67       
C           103.35      58.36       78.54       
C           104.48      58.44       79.39       
C           106.05      62.28       81.9        
O           106.92      59.18       81.71       
O           104.32      60.88       77.42       
C           107.08      56.34       80.94       
C           103.59      63.61       77.85       
H           103.88      64.65       77.92       
H           102.51498   63.55305    78.02086    
H           103.79      63.42       76.79       
H           108.09      56.7        80.8        
H           106.92191   55.91604    81.93165    
H           107.06      55.54       80.17       
H           102.01      57.06       77.42       
H           102.76      59.26       78.28       
H           106.27      61.46       82.57       
H           106.65      63.77       83.31       
C           102.88      57.15       78.12       
N           104.77      56.07       79.11       
C           103.62      56.07       78.39       
C           105.53      68.41       81.77       
C           106.25      68.0        82.83       
S           105.25      67.05       80.7        
H           106.79      66.02       83.7        
H           106.62      68.64       83.6        
C           106.43      66.54       82.82       
C           105.94      65.93       81.72       
C           101.61      78.03       78.03       
N           101.79      77.88       79.32       
C           101.77      76.99       77.1        
C           102.33      76.77       79.72       
C           102.54      75.63       78.93       
C           103.01      74.53       79.81       
C           103.3       75.28       81.13       
N           102.79      76.56       80.98       
C           103.11      73.13       79.72       
C           102.43      72.26       78.62       
N           102.8       70.94       78.82       
C           103.66      70.83       79.92       
C           104.78      72.11       81.51       
C           103.81      72.13       80.5        
C           102.17      75.79       77.56       
O           101.67      72.69       77.7        
O           103.74      74.87       82.19       
C           102.22      69.79       78.09       
C           102.82      77.47       82.07       
H           102.86      76.92       83.07       
H           103.60899   78.21746    81.98695    
H           101.85      77.87       81.96       
H           102.08      68.96       78.8        
H           102.9136    69.45371    77.31933    
H           101.27      70.07       77.73       
H           106.19      70.98       82.66       
H           105.13      73.01       81.93       
H           102.33      74.98       76.82       
H           101.58      77.11       76.09       
C           105.33      70.94       82.01       
N           104.11      69.68       80.39       
C           105.0       69.76       81.42       
C           101.37      81.93       78.02       
C           101.19      81.51       76.72       
S           101.37      80.54       79.02       
H           100.98      79.57       75.7        
H           101.13      82.16       75.91       
C           101.04      80.11       76.61       
C           101.36      79.41       77.72       
H           41.43       8.7         32.37       
H           101.2       82.9        78.36       
