612

C           116.4       9.66        37.85       
C           117.25      10.72       37.64       
S           116.53      9.02        39.47       
C           120.81      13.0        42.11       
C           120.1       11.78       42.46       
C           120.27      11.07       43.65       
C           121.18      11.65       44.51       
C           121.74      12.91       44.26       
C           121.53      13.61       43.04       
C           121.55      11.19       45.85       
C           122.51      12.23       46.38       
C           122.5       13.3        45.47       
C           120.64      13.27       40.62       
C           119.7       12.18       40.18       
C           119.36      11.29       41.29       
C           123.12      12.33       47.61       
C           123.89      13.47       47.87       
C           123.89      14.5        46.98       
C           123.21      14.49       45.78       
C           119.09      11.99       38.97       
C           118.08      11.02       38.77       
C           117.75      10.18       39.92       
C           118.48      10.25       41.16       
C           122.34      9.86        45.76       
C           120.31      11.15       46.81       
C           122.02      13.25       39.96       
C           120.05      14.65       40.35       
H           122.02      14.55       42.87       
H           119.93      10.06       43.76       
H           119.31      12.61       38.09       
H           118.25      9.54        41.96       
H           123.13      11.51       48.29       
H           123.28      15.33       45.08       
H           121.66      9.03        45.52       
H           122.81      9.5         46.71       
H           123.01813   9.83204     44.90709    
H           119.71      12.05       46.65       
H           120.6       11.04       47.86       
H           119.57706   10.36772    46.61267    
H           120.8       15.39       40.67       
H           119.89      14.68       39.3        
H           119.0539    14.83368    40.75268    
H           122.7       13.89       40.55       
H           121.89      13.63       38.95       
H           122.41904   12.24152    39.85117    
H           124.8       13.01       49.87       
H           117.29      11.31       36.75       
S           125.02      15.76       47.4        
C           124.68      13.75       48.97       
C           125.32      14.93       48.91       
C           113.29      8.34        35.07       
C           113.84      7.42        36.02       
C           113.8       9.59        35.22       
N           113.55      6.15        36.2        
N           115.32      6.7         37.5        
O           114.34      5.73        37.21       
H           115.09      11.05       36.18       
H           113.34      10.39       34.67       
C           114.83      9.95        36.12       
C           114.9       7.8         36.9        
C           115.45      9.15        36.98       
C           101.47      4.47        23.88       
C           101.79      3.66        24.97       
S           102.5       5.88        23.89       
C           105.78      5.44        29.23       
C           105.67      6.35        28.15       
C           106.36      7.58        28.11       
C           107.18      7.85        29.2        
C           107.43      6.86        30.26       
C           106.71      5.65        30.3        
C           108.12      9.05        29.45       
C           108.92      8.57        30.68       
C           108.54      7.33        31.08       
C           104.67      4.36        29.24       
C           104.16      4.52        27.79       
C           104.64      5.75        27.29       
C           110.02      9.16        31.27       
C           110.69      8.56        32.4        
C           110.19      7.27        32.82       
C           109.18      6.64        32.14       
C           103.32      3.68        27.09       
C           102.74      4.2         25.91       
C           103.2       5.49        25.39       
C           104.19      6.19        26.03       
C           107.49      10.36       29.74       
C           109.27      9.2         28.38       
C           103.56      4.73        30.26       
C           105.15      2.88        29.46       
H           106.84      4.94        31.1        
H           106.14      8.41        27.44       
H           102.99      2.73        27.44       
H           104.65      7.06        25.62       
H           110.45      10.05       30.9        
H           108.82      5.68        32.52       
H           107.13      10.91       28.94       
H           108.18      11.05       30.12       
H           106.66116   10.29093    30.44452    
H           109.86      8.22        28.47       
H           110.04      9.99        28.46       
H           108.93598   9.32082     27.3495     
H           104.37      2.16        29.33       
H           105.83      2.62        28.67       
H           105.60389   2.61867     30.41592    
H           103.34      4.03        31.04       
H           103.88      5.66        30.77       
H           102.64462   5.11812     29.8133     
H           112.43      9.9         32.87       
H           101.32      2.64        25.06       
S           111.05      6.76        34.25       
C           111.87      8.95        33.07       
C           112.13      8.13        34.15       
C           99.76       3.61        19.9        
C           100.32      2.56        20.73       
C           99.83       4.85        20.47       
N           100.59      1.33        20.4        
N           101.2       1.72        22.62       
O           101.18      0.85        21.59       
H           100.36      6.24        22.01       
H           99.53       5.7         19.83       
C           100.34      5.12        21.77       
C           100.8       2.86        22.06       
C           100.77      4.21        22.67       
C           103.64      5.53        4.66        
C           102.85      6.43        5.3         
S           103.46      3.92        5.33        
C           99.56       5.15        10.33       
C           100.27      4.07        9.71        
C           100.35      2.78        10.32       
C           99.81       2.65        11.6        
C           99.37       3.87        12.3        
C           99.13       5.08        11.64       
C           99.88       1.51        12.56       
C           99.45       2.1         13.92       
C           99.11       3.5         13.72       
C           99.69       6.44        9.47        
C           100.41      5.87        8.22        
C           100.78      4.52        8.37        
C           99.43       1.61        15.2        
C           99.26       2.53        16.28       
C           98.91       3.89        16.06       
C           98.68       4.31        14.77       
C           101.06      6.54        7.21        
C           101.98      5.87        6.32        
C           102.19      4.45        6.45        
C           101.69      3.8         7.54        
C           101.41      1.09        12.53       
C           98.91       0.4         12.08       
C           100.55      7.46        10.27       
C           98.37       7.04        8.97        
H           98.85       6.02        12.15       
H           100.77      1.96        9.7         
H           100.89      7.6         7.13        
H           101.98      2.78        7.78        
H           99.89       0.6         15.39       
H           98.45       5.33        14.55       
H           101.42      0.48        11.71       
H           102.02      1.89        12.37       
H           101.81047   0.52934     13.37462    
H           99.09       0.12        10.95       
H           99.16       -0.54       12.55       
H           97.86358    0.69997     12.13581    
H           98.2        7.92        9.58        
H           98.35       7.12        7.93        
H           97.5793     6.30629     9.12672     
H           100.1       7.64        11.27       
H           101.53      7.05        10.5        
H           100.77636   8.42201     9.81022     
H           99.68       1.36        18.14       
H           102.88      7.51        5.08        
S           98.98       4.87        17.52       
C           99.46       2.32        17.68       
C           99.31       3.46        18.49       
C           106.36      6.54        1.33        
C           106.17      7.47        2.4         
C           105.85      5.28        1.56        
N           106.58      8.71        2.5         
N           105.25      8.24        4.29        
O           106.12      9.16        3.74        
H           104.55      3.88        2.79        
H           105.98      4.45        0.86        
C           105.0       4.91        2.74        
C           105.32      7.15        3.51        
C           104.6       5.84        3.66        
C           114.58      13.09       -10.96      
C           115.21      13.04       -9.75       
S           113.05      12.15       -10.99      
C           112.89      9.78        -5.2        
C           112.29      9.6         -6.45       
C           111.2       8.78        -6.72       
C           110.6       8.2         -5.61       
C           111.17      8.25        -4.34       
C           112.34      9.02        -4.15       
C           109.28      7.36        -5.59       
C           109.16      7.09        -4.1        
C           110.19      7.71        -3.34       
C           113.98      10.76       -5.32       
C           114.03      11.03       -6.81       
C           112.87      10.45       -7.42       
C           108.11      6.49        -3.44       
C           108.05      6.7         -2.05       
C           109.11      7.3         -1.38       
C           110.26      7.81        -2.01       
C           114.93      11.86       -7.5        
C           114.58      12.16       -8.86       
C           113.39      11.6        -9.36       
C           112.61      10.61       -8.72       
C           109.52      6.12        -6.51       
C           108.12      8.27        -6.12       
C           115.31      10.18       -4.81       
C           113.68      12.06       -4.54       
H           112.68      9.24        -3.14       
H           110.7       8.82        -7.7        
H           115.8       12.28       -7.02       
H           111.71      10.15       -9.16       
H           107.3       6.05        -4.06       
H           111.07      8.26        -1.43       
H           108.81      5.98        -7.25       
H           110.27      6.42        -7.19       
H           109.85688   5.21688     -6.0011     
H           108.32      8.6         -7.09       
H           107.27      7.59        -6.22       
H           107.89319   9.11347     -5.46791    
H           114.57      12.72       -4.61       
H           112.86      12.5        -5.11       
H           113.44039   11.99154    -3.47887    
H           115.25      9.64        -3.9        
H           116.1       10.96       -4.72       
H           115.70223   9.45366     -5.52182    
H           106.17      5.64        -1.5        
H           116.2       13.39       -9.65       
S           108.75      7.42        0.35        
C           106.99      6.29        -1.14       
C           107.16      6.78        0.16        
C           115.29      15.39       -14.63      
C           116.38      15.16       -13.74      
C           114.08      15.07       -14.13      
N           117.68      15.31       -13.81      
N           117.38      14.17       -11.97      
O           118.32      14.69       -12.78      
H           112.86      14.14       -12.75      
H           113.18      15.47       -14.57      
C           113.9       14.35       -12.96      
C           116.16      14.41       -12.59      
C           114.91      13.9        -12.18      
C           116.1       17.76       -30.84      
C           115.49      16.8        -30.17      
S           117.05      18.76       -29.77      
C           114.93      16.75       -24.11      
C           116.0       17.57       -24.62      
C           116.82      18.25       -23.75      
C           116.59      18.21       -22.41      
C           115.43      17.44       -21.95      
C           114.59      16.77       -22.77      
C           117.56      18.49       -21.24      
C           116.7       18.07       -20.06      
C           115.54      17.41       -20.54      
C           114.38      15.86       -25.27      
C           115.06      16.48       -26.47      
C           115.96      17.51       -26.08      
C           117.04      17.89       -18.74      
C           116.18      17.19       -17.86      
C           115.07      16.56       -18.36      
C           114.69      16.65       -19.65      
C           114.87      16.15       -27.8       
C           115.62      16.93       -28.75      
C           116.49      17.95       -28.31      
C           116.67      18.33       -27.03      
C           117.86      20.0        -21.06      
C           118.87      17.74       -21.38      
C           112.83      15.87       -25.44      
C           115.02      14.45       -25.05      
H           113.74      16.11       -22.45      
H           117.64      18.8        -24.11      
H           114.17      15.41       -28.09      
H           117.33      19.13       -26.75      
H           117.89      18.34       -18.34      
H           113.9       16.03       -20.06      
H           118.19      20.38       -22.02      
H           118.64      20.01       -20.35      
H           116.9616    20.57702    -20.84088   
H           119.23      18.06       -22.39      
H           119.56      18.14       -20.66      
H           118.73585   16.65976    -21.43648   
H           115.06      13.85       -25.93      
H           115.99      14.57       -24.76      
H           114.63735   13.85476    -24.22092   
H           112.67      15.56       -26.42      
H           112.42      15.12       -24.8       
H           112.32689   16.81872    -25.25313   
H           117.41      16.84       -15.98      
H           114.84      16.07       -30.67      
S           114.28      15.54       -17.14      
C           116.45      16.68       -16.5       
C           115.45      15.95       -15.95      
C           115.49      18.26       -35.16      
C           115.86      17.0        -34.64      
C           115.72      19.32       -34.25      
N           115.85      15.81       -35.22      
N           116.4       15.49       -32.96      
O           116.13      14.95       -34.17      
H           116.09      20.03       -32.27      
H           115.52      20.35       -34.46      
C           116.05      19.1        -32.89      
C           116.19      16.75       -33.24      
C           116.24      17.86       -32.3       
C           113.02      24.34       -50.17      
C           112.93      25.07       -49.08      
S           113.08      22.63       -49.81      
C           112.63      22.72       -43.44      
C           112.75      21.75       -44.49      
C           112.77      20.38       -44.27      
C           112.78      19.9        -42.96      
C           112.65      20.85       -41.91      
C           112.54      22.24       -42.07      
C           113.29      18.56       -42.46      
C           113.2       18.74       -40.92      
C           113.02      20.13       -40.69      
C           112.94      24.1        -43.95      
C           112.9       23.91       -45.47      
C           112.87      22.5        -45.77      
C           113.75      17.89       -40.0       
C           114.09      18.38       -38.72      
C           113.92      19.77       -38.47      
C           113.47      20.63       -39.48      
C           112.97      24.85       -46.46      
C           113.01      24.33       -47.82      
C           113.02      22.9        -48.09      
C           112.89      21.98       -47.06      
C           114.76      18.37       -42.91      
C           112.36      17.4        -42.96      
C           114.41      24.53       -43.5       
C           111.9       25.14       -43.42      
H           112.65      22.81       -41.17      
H           112.83      19.67       -45.06      
H           113.01      25.93       -46.33      
H           112.83      20.89       -47.19      
H           114.14      16.93       -40.35      
H           113.27      21.66       -39.28      
H           115.21      17.4        -42.62      
H           114.61      18.29       -43.95      
H           115.37963   19.23749    -42.6828    
H           112.22      17.4        -43.98      
H           112.87      16.47       -42.74      
H           111.34123   17.51812    -42.59088   
H           112.07      26.05       -43.96      
H           110.95      24.74       -43.69      
H           111.86471   25.36586    -42.35424   
H           114.6       25.44       -44.02      
H           114.49      24.77       -42.4       
H           115.19611   23.84485    -43.81733   
H           115.11      16.69       -37.52      
H           112.82      26.2        -49.07      
S           114.29      20.12       -36.81      
C           114.75      17.7        -37.59      
C           114.87      18.51       -36.49      
C           113.33      26.01       -54.23      
C           112.6       26.69       -53.26      
C           113.77      24.76       -53.84      
N           111.91      27.79       -53.29      
N           111.75      27.07       -51.18      
O           111.48      28.04       -52.11      
H           114.15      23.3        -52.25      
H           114.2       24.1        -54.6       
C           113.62      24.22       -52.52      
C           112.45      26.17       -51.9       
C           112.92      24.87       -51.56      
C           120.78      32.02       -67.59      
C           120.83      30.69       -67.33      
S           120.02      32.96       -66.27      
C           118.15      28.35       -62.33      
C           118.08      29.75       -62.47      
C           117.49      30.66       -61.54      
C           116.75      30.01       -60.56      
C           116.69      28.6        -60.5       
C           117.33      27.8        -61.41      
C           115.72      30.66       -59.62      
C           115.23      29.48       -58.85      
C           115.85      28.28       -59.4       
C           119.09      27.69       -63.41      
C           119.3       28.91       -64.29      
C           118.82      30.13       -63.65      
C           114.46      29.49       -57.68      
C           114.31      28.2        -57.07      
C           114.84      27.03       -57.64      
C           115.67      27.05       -58.8       
C           120.0       29.03       -65.55      
C           120.26      30.33       -66.09      
C           119.72      31.5        -65.42      
C           119.07      31.4        -64.19      
C           114.58      31.49       -60.43      
C           116.41      31.63       -58.67      
C           118.21      26.68       -64.21      
C           120.43      27.03       -62.89      
H           117.41      26.73       -61.21      
H           117.45      31.76       -61.69      
H           120.4       28.11       -66.02      
H           118.84      32.25       -63.56      
H           114.11      30.38       -57.26      
H           116.22      26.16       -59.07      
H           114.4       32.55       -60.14      
H           114.91      31.68       -61.49      
H           113.64643   30.93804    -60.53903   
H           116.86      32.5        -59.1       
H           115.67      32.08       -58.07      
H           117.20392   31.13819    -58.10793   
H           120.88      26.47       -63.7       
H           121.22      27.72       -62.6       
H           120.33126   26.32472    -62.06482   
H           118.0       25.86       -63.47      
H           118.89      26.19       -64.95      
H           117.33495   27.16692    -64.64047   
H           113.21      28.66       -55.24      
H           121.24      29.97       -68.0       
S           114.41      25.62       -56.72      
C           113.59      27.9        -55.86      
C           113.7       26.6        -55.51      
C           121.96      34.4        -71.24      
C           122.53      33.15       -70.81      
C           120.99      34.74       -70.32      
N           123.53      32.58       -71.48      
N           122.88      31.13       -69.81      
O           123.71      31.39       -70.85      
H           119.91      34.33       -68.5       
H           120.36      35.67       -70.46      
C           120.62      33.93       -69.22      
C           122.15      32.31       -69.73      
C           121.22      32.74       -68.8       
C           123.76      44.8        -84.17      
C           122.87      45.06       -83.21      
S           124.21      43.08       -84.26      
C           121.83      40.9        -78.75      
C           122.48      40.44       -79.89      
C           123.17      39.19       -79.76      
C           123.2       38.54       -78.51      
C           122.44      38.98       -77.43      
C           121.71      40.18       -77.53      
C           123.92      37.21       -78.17      
C           123.35      36.95       -76.72      
C           122.48      37.97       -76.32      
C           121.22      42.3        -79.02      
C           121.9       42.65       -80.41      
C           122.57      41.53       -80.89      
C           123.53      35.87       -75.89      
C           122.86      35.84       -74.67      
C           122.09      36.96       -74.3       
C           121.79      38.05       -75.15      
C           122.04      43.89       -81.06      
C           122.65      43.92       -82.32      
C           123.28      42.74       -82.81      
C           123.31      41.59       -82.06      
C           125.47      37.4        -78.0       
C           123.49      35.99       -79.02      
C           121.75      43.27       -77.89      
C           119.69      42.29       -79.0       
H           121.16      40.65       -76.8       
H           123.82      38.86       -80.54      
H           121.55      44.69       -80.59      
H           124.03      40.81       -82.34      
H           124.21      35.08       -76.13      
H           121.1       38.83       -74.88      
H           125.98      36.48       -77.98      
H           125.88      37.82       -78.89      
H           125.69829   38.03492    -77.14393   
H           124.04      35.78       -79.94      
H           123.74      35.09       -78.44      
H           122.40504   35.94036    -79.11219   
H           119.33      42.01       -78.0       
H           119.23      43.27       -79.05      
H           119.34938   41.71095    -79.85836   
H           121.26      43.25       -76.95      
H           121.42      44.22       -78.24      
H           122.82329   43.16613    -77.73074   
H           123.51      33.99       -73.67      
H           122.4       46.07       -83.09      
S           121.4       36.65       -72.74      
C           122.98      34.89       -73.57      
C           122.13      35.13       -72.49      
C           125.68      47.45       -87.32      
C           124.38      47.79       -86.62      
C           126.25      46.29       -86.75      
N           123.62      48.91       -86.77      
N           122.58      47.51       -85.31      
O           122.51      48.66       -86.06      
H           126.22      44.68       -85.24      
H           127.25      45.97       -87.01      
C           125.6       45.41       -85.71      
C           123.73      46.96       -85.61      
C           124.34      45.73       -85.13      
C           134.44      56.15       -98.29      
C           133.93      54.87       -98.57      
S           133.81      56.78       -96.76      
C           130.4       51.86       -94.8       
C           130.75      53.05       -94.33      
C           130.21      53.65       -93.17      
C           129.41      52.87       -92.36      
C           129.11      51.56       -92.76      
C           129.59      51.09       -93.98      
C           128.74      53.2        -91.01      
C           128.0       51.9        -90.79      
C           128.34      50.92       -91.71      
C           131.05      51.49       -96.11      
C           131.89      52.76       -96.3       
C           131.58      53.78       -95.33      
C           127.21      51.59       -89.7       
C           126.88      50.28       -89.41      
C           127.37      49.32       -90.33      
C           127.95      49.64       -91.58      
C           132.69      53.08       -97.41      
C           133.06      54.39       -97.53      
C           132.81      55.33       -96.57      
C           132.04      55.11       -95.47      
C           127.79      54.4        -91.17      
C           129.69      53.3        -89.77      
C           130.05      51.2        -97.2       
C           132.03      50.38       -95.78      
H           129.24      50.14       -94.32      
H           130.44      54.68       -92.91      
H           133.02      52.36       -98.15      
H           131.94      55.87       -94.71      
H           126.81      52.39       -89.07      
H           128.22      48.89       -92.38      
H           128.25      55.28       -91.57      
H           127.34      54.71       -90.23      
H           126.95912   54.15948    -91.83324   
H           130.18      52.3        -89.69      
H           129.0       53.52       -88.84      
H           130.50355   53.99937    -89.96268   
H           132.85      50.79       -95.09      
H           131.48      49.56       -95.2       
H           132.63232   49.95978    -96.58543   
H           129.53      50.31       -97.09      
H           130.66      51.21       -98.08      
H           129.29318   51.97166    -97.34098   
H           125.61      50.17       -87.59      
H           134.19      54.36       -99.44      
S           126.95      47.69       -89.73      
C           126.16      49.64       -88.33      
C           126.31      48.28       -88.28      
C           137.28      58.54       -100.81     
C           137.14      57.09       -101.0      
C           136.54      58.99       -99.79      
N           137.71      56.24       -101.78     
N           136.22      55.11       -100.59     
O           137.16      55.02       -101.61     
H           135.14      58.75       -98.15      
H           136.54      60.05       -99.61      
C           135.67      58.21       -98.9       
C           136.24      56.34       -100.16     
C           135.47      56.9        -99.12      
C           145.97      68.24       -111.09     
C           145.62      66.96       -111.45     
S           145.2       68.67       -109.59     
C           142.23      63.38       -107.86     
C           142.26      64.8        -107.5      
C           141.63      65.24       -106.37     
C           140.99      64.31       -105.55     
C           140.94      62.94       -105.85     
C           141.59      62.53       -107.02     
C           140.21      64.62       -104.28     
C           139.81      63.21       -103.88     
C           140.09      62.3        -104.86     
C           143.16      63.12       -109.08     
C           143.54      64.55       -109.46     
C           143.1       65.43       -108.46     
C           139.24      62.76       -102.74     
C           138.88      61.38       -102.58     
C           139.15      60.5        -103.66     
C           139.89      60.92       -104.78     
C           144.24      64.99       -110.56     
C           144.73      66.3        -110.51     
C           144.35      67.15       -109.49     
C           143.47      66.76       -108.48     
C           139.0       65.51       -104.65     
C           140.97      65.25       -103.15     
C           142.41      62.48       -110.18     
C           144.53      62.4        -108.79     
H           141.48      61.52       -107.31     
H           141.76      66.27       -106.04     
H           144.56      64.35       -111.38     
H           143.19      67.44       -107.6      
H           138.89      63.46       -102.01     
H           140.2       60.24       -105.58     
H           139.25      66.49       -104.95     
H           138.39      65.13       -105.5      
H           138.29581   65.70522    -103.84123  
H           141.13      66.29       -103.5      
H           140.57      65.14       -102.12     
H           141.9795    64.85072    -103.05206  
H           144.18      61.39       -108.51     
H           145.2       62.38       -109.66     
H           145.11024   62.80115    -107.95904  
H           141.96      61.57       -109.8      
H           143.07      62.13       -111.01     
H           141.58138   63.07927    -110.55732  
H           137.99      61.21       -100.48     
H           145.9       66.54       -112.38     
S           138.72      58.89       -103.14     
C           138.23      60.76       -101.44     
C           138.07      59.41       -101.6      
C           148.75      71.12       -112.95     
C           148.21      70.0        -113.69     
C           148.28      71.2        -111.66     
N           148.44      69.7        -114.94     
N           147.05      68.08       -114.07     
O           147.85      68.46       -115.08     
H           147.22      70.27       -109.95     
H           148.81      71.82       -110.98     
C           147.38      70.24       -111.07     
C           147.29      69.03       -113.12     
C           146.75      69.23       -111.79     
H           125.66      15.54       49.82       
H           149.06      72.04       -113.51     
