612

C           111.99      29.15       28.18       
C           112.41      29.68       29.35       
S           110.54      28.2        28.33       
C           109.19      28.74       34.43       
C           108.58      28.22       33.29       
C           107.48      27.42       33.39       
C           106.81      27.35       34.59       
C           107.38      27.91       35.77       
C           108.63      28.54       35.74       
C           105.59      26.48       34.86       
C           105.38      26.79       36.31       
C           106.44      27.58       36.85       
C           110.39      29.61       34.04       
C           110.62      29.22       32.62       
C           109.51      28.42       32.21       
C           104.47      26.25       37.17       
C           104.54      26.66       38.56       
C           105.54      27.56       39.03       
C           106.53      28.01       38.16       
C           111.56      29.72       31.78       
C           111.46      29.4        30.41       
C           110.4       28.52       30.0        
C           109.41      28.06       30.92       
C           105.89      24.96       34.66       
C           104.31      26.9        34.02       
C           111.59      29.17       34.97       
C           110.15      31.14       34.17       
H           109.2       28.79       36.63       
H           107.22      26.83       32.5        
H           112.21      30.47       32.14       
H           108.67      27.32       30.58       
H           103.72      25.57       36.82       
H           107.4       28.53       38.52       
H           106.12      24.95       33.58       
H           105.01      24.37       34.93       
H           106.80473   24.6863     35.18579    
H           104.08      28.02       34.08       
H           103.47      26.32       34.31       
H           104.42245   26.83675    32.93766    
H           109.55      31.45       34.98       
H           111.12      31.59       34.2        
H           109.73078   31.55199    33.25206    
H           111.43      29.23       36.08       
H           112.52      29.77       34.75       
H           111.82556   28.11354    34.84151    
H           102.71      25.81       39.47       
H           113.44      30.11       29.49       
S           105.29      27.83       40.75       
C           103.63      26.3        39.69       
C           103.89      26.83       40.85       
C           113.81      29.22       24.05       
C           114.12      30.21       25.0        
C           112.95      28.25       24.52       
N           114.82      31.34       24.95       
N           114.15      31.12       27.12       
O           114.91      31.78       26.23       
H           111.76      27.45       26.15       
H           112.76      27.35       23.87       
C           112.38      28.25       25.82       
C           113.6       30.13       26.38       
C           112.62      29.18       26.82       
C           119.96      26.91       8.82        
C           120.45      27.86       9.59        
S           118.72      25.97       9.56        
C           118.36      29.01       15.2        
C           117.76      27.91       14.5        
C           116.67      27.26       15.06       
C           116.31      27.55       16.37       
C           116.93      28.61       17.05       
C           117.97      29.34       16.46       
C           115.28      26.82       17.2        
C           115.35      27.68       18.49       
C           116.29      28.71       18.36       
C           119.4       29.65       14.28       
C           119.41      28.68       13.16       
C           118.34      27.75       13.21       
C           114.68      27.36       19.61       
C           114.86      28.17       20.74       
C           115.73      29.26       20.67       
C           116.42      29.56       19.47       
C           120.13      28.8        11.97       
C           119.86      27.93       10.9        
C           118.86      26.95       11.02       
C           118.0       26.86       12.16       
C           115.71      25.34       17.46       
C           113.76      26.79       16.65       
C           120.74      29.65       15.07       
C           118.97      31.06       13.82       
H           118.43      30.23       17.01       
H           116.06      26.54       14.41       
H           120.98      29.55       11.88       
H           117.16      26.12       12.12       
H           113.84      26.6        19.55       
H           117.18      30.4        19.53       
H           115.89      24.86       16.51       
H           115.02      24.78       18.06       
H           116.72483   25.33314    17.8577     
H           113.59      27.75       16.2        
H           112.99      26.68       17.43       
H           113.56375   26.07507    15.85096    
H           119.76      31.25       13.09       
H           118.02      30.94       13.29       
H           118.89679   31.85065    14.56673    
H           121.41      30.47       14.86       
H           120.55      29.72       16.13       
H           121.27064   28.70502    14.95369    
H           113.32      27.36       22.13       
H           121.24      28.55       9.2         
S           115.65      30.18       22.19       
C           114.02      28.12       21.89       
C           114.36      29.11       22.77       
C           121.66      25.58       5.03        
C           122.44      26.33       5.93        
C           120.43      25.21       5.47        
N           123.66      26.76       5.85        
N           122.82      27.43       7.87        
O           123.9       27.42       7.02        
H           119.0       25.14       7.02        
H           119.83      24.6        4.84        
C           119.94      25.54       6.73        
C           121.88      26.77       7.19        
C           120.58      26.45       7.62        
C           122.92      26.17       -11.53      
C           121.9       25.52       -10.86      
S           124.04      26.94       -10.41      
C           121.77      24.91       -4.82       
C           122.9       25.67       -5.28       
C           123.78      26.28       -4.43       
C           123.67      26.03       -3.08       
C           122.45      25.46       -2.6        
C           121.44      24.91       -3.48       
C           124.54      26.48       -1.93       
C           123.74      25.99       -0.74       
C           122.51      25.42       -1.14       
C           120.8       24.54       -5.91       
C           121.64      25.03       -7.14       
C           122.79      25.76       -6.76       
C           124.07      26.17       0.6         
C           123.04      25.82       1.51        
C           121.82      25.12       1.11        
C           121.54      25.06       -0.27       
C           121.33      24.86       -8.48       
C           122.05      25.5        -9.43       
C           123.21      26.29       -9.02       
C           123.63      26.38       -7.69       
C           124.71      27.99       -1.89       
C           125.88      25.74       -1.94       
C           119.52      25.39       -5.85       
C           120.61      23.03       -5.83       
H           120.53      24.4        -3.15       
H           124.62      26.87       -4.83       
H           120.42      24.38       -8.78       
H           124.46      26.99       -7.28       
H           125.01      26.72       0.88        
H           120.58      24.72       -0.68       
H           125.53      28.22       -1.19       
H           125.09      28.29       -2.89       
H           123.77705   28.49825    -1.64632    
H           126.58      26.38       -2.57       
H           126.43      25.61       -0.9        
H           125.78239   24.78481    -2.45594    
H           120.01      22.9        -4.98       
H           120.06      22.71       -6.67       
H           121.54678   22.47938    -5.74419    
H           119.07      25.16       -4.89       
H           119.75      26.47       -5.84       
H           118.72036   25.1494     -6.55057    
H           123.86      26.35       3.52        
H           121.0       25.08       -11.36      
S           120.84      24.77       2.51        
C           123.12      25.88       2.97        
C           122.05      25.4        3.62        
C           123.46      27.52       -15.68      
C           122.36      26.73       -15.26      
C           124.32      27.77       -14.63      
N           121.3       26.41       -16.01      
N           121.05      25.5        -13.89      
O           120.58      25.59       -15.16      
H           124.94      27.52       -12.67      
H           125.11      28.51       -14.72      
C           124.19      27.24       -13.35      
C           122.16      26.24       -13.94      
C           123.1       26.47       -12.92      
C           126.18      29.06       -31.65      
C           127.06      28.78       -30.7       
S           124.57      29.47       -30.98      
C           125.92      29.17       -24.76      
C           124.84      29.51       -25.56      
C           123.65      29.81       -24.97      
C           123.52      29.74       -23.55      
C           124.65      29.42       -22.81      
C           125.85      29.1        -23.4       
C           122.25      29.72       -22.66      
C           122.91      29.7        -21.31      
C           124.3       29.36       -21.42      
C           127.22      28.77       -25.55      
C           126.63      29.02       -26.96      
C           125.31      29.4        -26.99      
C           122.27      29.54       -20.02      
C           123.1       29.03       -19.04      
C           124.49      28.96       -19.12      
C           125.1       29.11       -20.34      
C           127.26      28.69       -28.15      
C           126.53      28.96       -29.32      
C           125.24      29.44       -29.4       
C           124.57      29.63       -28.2       
C           121.4       28.5        -23.01      
C           121.34      31.03       -22.82      
C           127.68      27.27       -25.24      
C           128.38      29.79       -25.41      
H           126.71      28.96       -22.78      
H           122.77      29.9        -25.61      
H           128.31      28.37       -28.23      
H           123.48      29.97       -28.16      
H           121.18      29.38       -19.97      
H           126.1       28.85       -20.43      
H           120.43      28.66       -22.67      
H           121.33      28.53       -24.05      
H           121.76294   27.5438     -22.6331    
H           120.93      30.95       -23.84      
H           120.49      30.82       -22.1       
H           121.85104   31.96108    -22.57498   
H           129.2       29.46       -26.08      
H           128.14      30.8        -25.68      
H           128.83938   29.77608    -24.42163   
H           127.94      27.18       -24.17      
H           128.6       27.09       -25.72      
H           126.91481   26.53928    -25.50196   
H           121.52      28.51       -17.53      
H           128.11      28.58       -30.83      
S           125.25      28.48       -17.6       
C           122.6       28.53       -17.76      
C           123.61      28.14       -16.95      
C           127.07      29.92       -35.91      
C           127.79      28.95       -35.15      
C           125.94      30.28       -35.29      
N           128.89      28.26       -35.52      
N           128.47      27.72       -33.37      
O           129.31      27.48       -34.46      
H           124.68      30.38       -33.5       
H           125.28      31.01       -35.76      
C           125.61      30.01       -33.91      
C           127.51      28.6        -33.8       
C           126.4       29.22       -33.09      
C           132.41      41.06       -46.47      
C           131.22      41.13       -45.7       
S           133.02      39.42       -46.41      
C           128.52      36.39       -43.11      
C           129.73      36.11       -43.69      
C           130.33      34.84       -43.65      
C           129.86      33.9        -42.78      
C           128.66      34.16       -42.1       
C           127.92      35.35       -42.32      
C           130.6       32.84       -42.1       
C           129.55      32.32       -41.07      
C           128.36      33.08       -41.16      
C           128.24      37.88       -43.03      
C           129.4       38.33       -43.91      
C           130.23      37.29       -44.32      
C           129.65      31.27       -40.13      
C           128.59      31.11       -39.16      
C           127.47      31.97       -39.26      
C           127.33      32.92       -40.24      
C           129.76      39.68       -44.24      
C           130.85      39.9        -45.09      
C           131.69      38.81       -45.41      
C           131.43      37.48       -45.0       
C           131.95      33.24       -41.43      
C           130.86      31.6        -43.07      
C           128.45      38.38       -41.63      
C           126.9       38.43       -43.74      
H           126.98      35.54       -41.84      
H           131.31      34.71       -44.15      
H           129.0       40.42       -44.13      
H           132.09      36.62       -45.07      
H           130.42      30.48       -40.19      
H           126.48      33.66       -40.22      
H           132.66      33.28       -42.3       
H           132.24      32.42       -40.74      
H           131.86996   34.22227    -40.96433   
H           131.84      31.71       -43.49      
H           130.87      30.65       -42.53      
H           130.15867   31.54886    -43.90284   
H           127.06      39.45       -44.05      
H           126.7       37.97       -44.68      
H           126.01869   38.28785    -43.11455   
H           128.3       39.45       -41.52      
H           127.69      37.87       -41.01      
H           129.42721   38.17581    -41.19244   
H           129.28      29.56       -37.76      
H           130.72      42.1        -45.53      
S           126.42      31.73       -37.87      
C           128.49      30.21       -38.02      
C           127.43      30.43       -37.19      
C           134.37      44.73       -47.94      
C           135.19      43.61       -47.52      
C           133.0       44.6        -47.85      
N           136.52      43.36       -47.64      
N           135.54      41.56       -46.72      
O           136.66      42.07       -47.24      
H           131.39      43.31       -47.35      
H           132.3       45.35       -48.18      
C           132.43      43.37       -47.35      
C           134.59      42.42       -47.12      
C           133.14      42.24       -46.98      
C           139.29      57.68       -56.69      
C           138.02      57.5        -56.34      
S           140.32      57.04       -55.43      
C           136.02      53.27       -52.52      
C           137.4       53.51       -52.5       
C           138.3       52.91       -51.64      
C           137.83      51.82       -50.93      
C           136.42      51.48       -51.03      
C           135.5       52.2        -51.82      
C           138.56      50.76       -50.08      
C           137.47      49.66       -50.0       
C           136.25      50.17       -50.4       
C           135.26      54.43       -53.14      
C           136.48      55.19       -53.77      
C           137.72      54.67       -53.34      
C           137.53      48.42       -49.44      
C           136.37      47.72       -49.17      
C           135.11      48.21       -49.61      
C           135.04      49.42       -50.36      
C           136.47      56.19       -54.78      
C           137.7       56.59       -55.27      
C           138.97      56.15       -54.75      
C           138.97      55.18       -53.73      
C           138.9       51.45       -48.73      
C           139.75      50.11       -50.8       
C           134.49      55.26       -52.13      
C           134.31      53.84       -54.27      
H           134.51      51.88       -51.94      
H           139.34      53.09       -51.59      
H           135.52      56.63       -55.15      
H           139.87      54.75       -53.39      
H           138.48      48.03       -49.17      
H           134.1       49.77       -50.77      
H           139.64      52.28       -48.71      
H           137.95      51.89       -48.42      
H           139.06023   50.84393    -47.83831   
H           140.45      50.93       -50.98      
H           140.39      49.47       -50.11      
H           139.57296   49.63788    -51.76636   
H           133.38      53.35       -53.89      
H           134.02      54.65       -55.0       
H           134.77281   53.14934    -54.9749    
H           133.8       54.59       -51.58      
H           135.23      55.73       -51.42      
H           133.91396   56.09977    -52.51866   
H           137.0       45.7        -48.31      
H           137.27      57.95       -56.95      
S           133.8       47.17       -49.02      
C           136.18      46.38       -48.63      
C           134.92      45.99       -48.5       
C           141.01      58.38       -60.69      
C           139.64      58.46       -60.47      
C           141.73      58.39       -59.49      
N           138.69      58.58       -61.39      
N           137.69      58.24       -59.42      
O           137.51      58.44       -60.74      
H           141.79      58.0        -57.39      
H           142.79      58.31       -59.5       
C           141.12      58.12       -58.28      
C           139.02      58.23       -59.19      
C           139.8       58.01       -58.0       
C           150.47      63.36       -73.39      
C           149.13      63.33       -73.46      
S           150.88      62.45       -71.93      
C           145.55      61.92       -68.68      
C           146.88      61.67       -68.54      
C           147.41      61.0        -67.47      
C           146.52      60.5        -66.48      
C           145.17      60.86       -66.57      
C           144.72      61.53       -67.71      
C           146.83      59.63       -65.24      
C           145.38      59.34       -64.82      
C           144.47      60.09       -65.55      
C           145.18      62.47       -70.09      
C           146.64      62.59       -70.68      
C           147.57      62.05       -69.76      
C           144.94      58.61       -63.73      
C           143.58      58.73       -63.33      
C           142.67      59.58       -64.02      
C           143.11      60.14       -65.17      
C           147.05      63.04       -71.9       
C           148.41      62.99       -72.22      
C           149.27      62.57       -71.22      
C           148.91      61.98       -70.03      
C           147.7       60.41       -64.19      
C           147.58      58.34       -65.65      
C           144.42      63.81       -70.0       
C           144.28      61.43       -70.76      
H           143.61      61.65       -67.81      
H           148.48      60.79       -67.36      
H           146.3       63.29       -72.64      
H           149.63      61.6        -69.3       
H           145.55      58.15       -63.07      
H           142.39      60.75       -65.76      
H           148.67      60.42       -64.59      
H           147.31      61.46       -63.9       
H           147.80249   59.89756    -63.23344   
H           148.06      58.58       -66.59      
H           148.26      57.87       -64.93      
H           146.94812   57.59452    -66.13279   
H           143.39      61.14       -70.18      
H           143.8       61.87       -71.63      
H           144.80289   60.51316    -71.03219   
H           143.58      63.72       -69.3       
H           143.93      64.09       -70.91      
H           145.08373   64.6236     -69.70739   
H           143.54      57.54       -61.52      
H           148.59      63.74       -74.36      
S           141.12      59.65       -63.25      
C           142.97      58.17       -62.26      
C           141.71      58.6        -61.98      
C           153.64      65.19       -75.76      
C           152.27      65.29       -76.18      
C           153.86      64.39       -74.65      
N           151.71      66.03       -77.14      
N           150.09      65.04       -75.8       
O           150.37      65.83       -76.89      
H           153.16      63.21       -73.01      
H           154.88      64.07       -74.36      
C           152.85      63.75       -73.85      
C           151.23      64.64       -75.37      
C           151.53      63.81       -74.21      
C           167.13      66.38       -84.95      
C           167.27      66.61       -83.64      
S           165.59      66.74       -85.56      
C           162.35      66.74       -80.14      
C           162.03      66.94       -81.48      
C           160.78      67.11       -81.98      
C           159.74      67.11       -81.05      
C           159.98      66.73       -79.7       
C           161.29      66.54       -79.27      
C           158.23      67.26       -81.39      
C           157.64      66.97       -79.99      
C           158.67      66.62       -79.01      
C           163.83      66.76       -79.77      
C           164.4       66.98       -81.18      
C           163.32      66.99       -82.16      
C           156.36      67.01       -79.55      
C           156.06      66.57       -78.27      
C           157.08      66.19       -77.41      
C           158.36      66.11       -77.76      
C           165.71      66.89       -81.64      
C           166.0       66.82       -83.04      
C           164.93      66.82       -83.97      
C           163.62      66.9        -83.54      
C           157.78      66.19       -82.41      
C           157.99      68.73       -81.9       
C           164.28      65.38       -79.2       
C           164.19      67.92       -78.81      
H           161.47      66.35       -78.23      
H           160.61      67.29       -83.05      
H           166.5       66.85       -80.95      
H           162.81      66.88       -84.31      
H           155.49      67.16       -80.15      
H           159.11      65.74       -77.06      
H           158.44      66.14       -83.32      
H           157.88      65.21       -81.9       
H           156.75556   66.29898    -82.76601   
H           158.57      68.95       -82.81      
H           156.91      68.74       -82.13      
H           158.26784   69.41765    -81.10122   
H           163.99      67.53       -77.79      
H           165.26      68.13       -78.93      
H           163.60947   68.80129    -79.08278   
H           163.71      65.16       -78.3       
H           165.3       65.37       -78.72      
H           164.33615   64.53067    -79.88087   
H           153.88      66.44       -78.24      
H           168.22      66.71       -83.15      
S           156.41      65.69       -75.86      
C           154.81      66.32       -77.72      
C           154.75      65.84       -76.46      
C           169.97      66.1        -88.32      
C           169.05      65.03       -88.0       
C           170.0       67.04       -87.31      
N           168.75      63.93       -88.72      
N           167.45      63.88       -86.91      
O           167.9       63.23       -88.03      
H           169.16      67.98       -85.58      
H           170.67      67.92       -87.35      
C           168.99      67.13       -86.27      
C           168.13      65.04       -86.95      
C           168.16      66.12       -85.96      
C           181.48      64.04       -100.03     
C           181.75      64.82       -98.94      
S           179.88      63.39       -99.97      
C           177.59      65.74       -94.58      
C           177.12      64.93       -95.61      
C           175.86      64.56       -95.85      
C           174.99      64.84       -94.82      
C           175.29      65.69       -93.8       
C           176.63      66.13       -93.62      
C           173.57      64.26       -94.73      
C           173.18      64.94       -93.43      
C           174.17      65.72       -92.89      
C           179.11      66.07       -94.64      
C           179.35      65.52       -96.04      
C           178.25      64.77       -96.57      
C           171.9       64.96       -92.86      
C           171.77      65.49       -91.55      
C           172.83      66.26       -91.02      
C           174.06      66.28       -91.68      
C           180.53      65.56       -96.75      
C           180.66      64.87       -97.99      
C           179.58      64.1        -98.44      
C           178.34      64.1        -97.77      
C           173.51      62.79       -94.7       
C           172.59      64.88       -95.77      
C           180.05      65.54       -93.49      
C           179.28      67.65       -94.56      
H           176.91      66.74       -92.76      
H           175.5       63.99       -96.76      
H           181.33      66.08       -96.38      
H           177.51      63.6        -98.24      
H           171.15      64.48       -93.39      
H           174.82      66.79       -91.24      
H           173.79      62.44       -95.66      
H           172.56      62.35       -94.53      
H           174.16437   62.38894    -93.92602   
H           172.41      65.9        -95.51      
H           171.57      64.39       -95.69      
H           172.87627   64.81394    -96.81966   
H           179.01      68.1        -93.61      
H           180.3       67.79       -94.83      
H           178.6532    68.15144    -95.29741   
H           179.87      66.23       -92.6       
H           181.08      65.8        -93.91      
H           180.00829   64.4626     -93.33013   
H           169.76      64.98       -90.84      
H           182.7       65.34       -98.86      
S           172.43      66.86       -89.43      
C           170.69      65.45       -90.67      
C           170.84      66.16       -89.52      
C           183.96      62.64       -103.31     
C           184.36      63.68       -102.47     
C           182.79      62.01       -102.94     
N           185.45      64.51       -102.46     
N           184.02      65.15       -100.83     
O           185.25      65.33       -101.37     
H           181.01      61.9        -101.9      
H           182.49      61.17       -103.49     
C           181.92      62.47       -102.0      
C           183.49      64.17       -101.45     
C           182.22      63.59       -101.26     
C           192.51      53.99       -114.6      
C           191.78      53.46       -113.61     
S           192.63      55.72       -114.57     
C           188.86      56.75       -109.49     
C           189.6       57.48       -110.35     
C           189.62      58.84       -110.31     
C           188.84      59.49       -109.36     
C           188.0       58.73       -108.54     
C           187.96      57.29       -108.57     
C           188.89      60.91       -108.81     
C           187.88      60.88       -107.66     
C           187.33      59.59       -107.59     
C           189.0       55.18       -109.71     
C           189.97      55.26       -110.9      
C           190.21      56.59       -111.37     
C           187.57      61.84       -106.73     
C           186.52      61.6        -105.83     
C           185.89      60.35       -105.85     
C           186.28      59.34       -106.67     
C           190.42      54.19       -111.61     
C           191.21      54.49       -112.74     
C           191.55      55.78       -113.2      
C           191.08      56.88       -112.45     
C           188.44      61.95       -109.84     
C           190.35      61.17       -108.35     
C           187.65      54.58       -110.14     
C           189.63      54.49       -108.54     
H           187.4       56.63       -107.86     
H           190.15      59.43       -111.04     
H           189.95      53.26       -111.49     
H           191.38      57.92       -112.69     
H           187.99      62.83       -106.75     
H           185.82      58.35       -106.67     
H           188.27      62.84       -109.25     
H           189.36      62.13       -110.47     
H           187.58031   61.62762    -110.42745  
H           191.07      60.8        -109.04     
H           190.46      62.26       -108.43     
H           190.66613   60.889      -107.34541  
H           189.02      53.71       -108.13     
H           190.56      54.09       -109.01     
H           189.93821   55.14226    -107.72289  
H           187.07      54.18       -109.34     
H           188.02      53.61       -110.49     
H           187.13387   55.14774    -110.91419  
H           186.2       63.51       -104.62     
H           191.73      52.39       -113.38     
S           184.57      60.35       -104.71     
C           185.97      62.5        -104.8      
C           184.85      62.01       -104.28     
C           194.68      52.03       -117.99     
C           194.6       51.41       -116.68     
C           193.89      53.14       -118.11     
N           195.26      50.38       -116.21     
N           194.02      51.25       -114.52     
O           194.83      50.3        -114.93     
H           192.56      54.65       -117.26     
H           193.75      53.63       -119.05     
C           193.18      53.79       -117.0      
C           193.86      52.04       -115.59     
C           193.15      53.27       -115.71     
H           103.22      27.01       41.67       
H           195.2       51.56       -118.86     
