612

C           107.06      43.05       25.74       
C           107.88      42.82       26.85       
S           106.01      44.43       25.94       
C           106.58      45.62       32.17       
C           105.96      46.09       30.98       
C           104.98      47.04       30.99       
C           104.55      47.59       32.2        
C           105.05      47.01       33.39       
C           106.08      46.07       33.38       
C           103.63      48.81       32.52       
C           103.5       48.67       33.99       
C           104.44      47.76       34.5        
C           107.53      44.49       31.78       
C           107.38      44.47       30.23       
C           106.43      45.35       29.81       
C           102.72      49.51       34.98       
C           102.95      49.28       36.33       
C           103.9       48.35       36.72       
C           104.62      47.58       35.85       
C           107.9       43.58       29.33       
C           107.47      43.59       27.99       
C           106.54      44.57       27.56       
C           106.06      45.47       28.5        
C           102.21      48.68       31.99       
C           104.23      50.17       32.08       
C           106.99      43.14       32.39       
C           109.0       44.65       32.16       
H           106.7       45.96       34.27       
H           104.48      47.37       30.07       
H           108.66      42.95       29.67       
H           105.37      46.21       28.2        
H           102.09      50.38       34.67       
H           105.43      46.96       36.1        
H           102.13      48.75       30.84       
H           101.6       49.5        32.37       
H           101.78901   47.71874    32.28469    
H           105.15      50.24       32.7        
H           103.66      51.1        32.31       
H           104.51091   50.22762    31.0284     
H           109.34      43.67       32.51       
H           109.53      44.94       31.17       
H           109.14711   45.39956    32.93758    
H           107.31      43.09       33.37       
H           107.5       42.32       31.81       
H           105.90814   43.01189    32.35441    
H           101.6       50.78       37.24       
H           108.74      42.14       26.99       
S           103.97      48.37       38.47       
C           102.27      49.96       37.46       
C           102.7       49.53       38.67       
C           107.36      40.97       21.91       
C           106.1       41.45       22.38       
C           108.39      41.18       22.74       
N           104.92      41.32       21.92       
N           104.75      42.52       23.79       
O           104.08      41.88       22.8        
H           109.2       42.07       24.51       
H           109.39      40.98       22.33       
C           108.26      41.81       24.02       
C           106.03      42.15       23.64       
C           107.06      42.38       24.51       
C           110.15      43.01       5.79        
C           111.13      43.32       6.69        
S           108.56      42.67       6.51        
C           110.13      42.1        12.51       
C           108.96      42.12       11.73       
C           107.76      41.58       12.25       
C           107.73      41.23       13.57       
C           108.92      41.28       14.38       
C           110.09      41.71       13.87       
C           106.51      40.75       14.4        
C           107.14      40.54       15.8        
C           108.5       40.84       15.77       
C           111.35      42.49       11.67       
C           110.72      42.93       10.37       
C           109.29      42.62       10.43       
C           106.55      40.19       16.98       
C           107.25      40.3        18.25       
C           108.62      40.62       18.2        
C           109.24      40.92       16.97       
C           111.42      43.29       9.23        
C           110.66      43.14       8.04        
C           109.27      42.78       8.14        
C           108.53      42.61       9.24        
C           106.0       39.39       13.79       
C           105.41      41.89       14.58       
C           112.33      41.27       11.48       
C           112.09      43.73       12.31       
H           110.98      41.7        14.47       
H           106.89      41.52       11.57       
H           112.52      43.48       9.24        
H           107.48      42.62       9.08        
H           105.5       39.9        17.02       
H           110.31      41.15       16.91       
H           105.51      39.66       12.88       
H           105.12      38.98       14.33       
H           106.78056   38.63035    13.74818    
H           106.0       42.66       15.04       
H           104.69      41.58       15.33       
H           104.9385    42.24891    13.66514    
H           112.79      43.31       13.0        
H           112.48      44.39       11.46       
H           111.39371   44.36826    12.85397    
H           113.36      41.67       11.35       
H           112.39      40.75       12.36       
H           111.97005   40.57127    10.72481    
H           105.65      40.33       19.75       
H           112.12      43.61       6.4         
S           109.25      40.7        19.87       
C           106.74      40.31       19.56       
C           107.62      40.58       20.5        
C           110.92      42.44       1.54        
C           111.73      43.27       2.31        
C           109.77      41.89       2.13        
N           112.78      43.94       2.06        
N           112.33      44.28       4.16        
O           113.16      44.58       3.2         
H           108.51      41.85       3.77        
H           109.03      41.36       1.55        
C           109.47      42.24       3.47        
C           111.38      43.54       3.65        
C           110.23      43.02       4.34        
C           116.68      37.72       -13.19      
C           115.78      36.98       -12.51      
S           116.89      39.34       -12.53      
C           113.13      38.97       -7.44       
C           113.99      39.88       -8.0        
C           114.14      41.13       -7.42       
C           113.41      41.4        -6.31       
C           112.52      40.5        -5.69       
C           112.39      39.27       -6.28       
C           113.65      42.67       -5.42       
C           112.71      42.39       -4.26       
C           112.14      41.06       -4.38       
C           113.19      37.64       -8.17       
C           114.09      37.98       -9.32       
C           114.58      39.29       -9.16       
C           112.63      43.04       -3.06       
C           112.1       42.44       -1.99       
C           111.38      41.17       -2.11       
C           111.36      40.5        -3.35       
C           114.5       37.14       -10.3       
C           115.33      37.61       -11.3       
C           115.82      38.92       -11.14      
C           115.47      39.82       -10.06      
C           113.18      43.94       -6.23       
C           115.15      42.8        -5.03       
C           111.7       37.45       -8.61       
C           113.77      36.54       -7.29       
H           111.71      38.53       -5.86       
H           114.77      41.89       -7.76       
H           114.19      36.09       -10.4       
H           115.88      40.81       -9.95       
H           113.19      43.91       -2.9        
H           110.87      39.54       -3.45       
H           113.78      44.01       -7.19       
H           112.14      43.75       -6.59       
H           113.35116   44.85285    -5.65947    
H           115.67      43.27       -5.83       
H           115.26      43.34       -4.11       
H           115.54288   41.82481    -4.74235    
H           112.99      36.13       -6.67       
H           114.18      35.69       -7.86       
H           114.60882   36.91602    -6.70427    
H           110.97      37.39       -7.74       
H           111.3       38.34       -9.12       
H           111.4921    36.5467     -9.18352    
H           112.35      43.92       -0.39       
H           115.51      36.0        -12.83      
S           110.47      40.79       -0.66       
C           111.93      42.96       -0.69       
C           111.19      42.18       0.13        
C           119.88      36.49       -15.98      
C           118.74      35.7        -15.84      
C           119.78      37.66       -15.31      
N           118.51      34.49       -16.33      
N           116.8       35.1        -14.95      
O           117.3       34.15       -15.84      
H           118.63      39.13       -14.18      
H           120.57      38.45       -15.32      
C           118.61      38.1        -14.59      
C           117.65      36.1        -14.98      
C           117.52      37.3        -14.26      
C           128.02      39.33       -29.75      
C           126.94      38.48       -29.59      
S           128.67      39.62       -28.19      
C           124.79      36.54       -24.31      
C           125.89      37.39       -24.25      
C           126.32      37.76       -22.99      
C           125.7       37.29       -21.82      
C           124.52      36.55       -21.95      
C           124.05      36.22       -23.21      
C           125.89      37.78       -20.37      
C           124.71      37.07       -19.68      
C           123.92      36.34       -20.66      
C           124.33      36.33       -25.75      
C           125.42      37.08       -26.45      
C           126.35      37.7        -25.58      
C           124.19      37.35       -18.4       
C           122.95      36.74       -18.1       
C           122.26      35.9        -19.04      
C           122.74      35.6        -20.26      
C           125.61      37.33       -27.81      
C           126.7       38.05       -28.26      
C           127.49      38.66       -27.3       
C           127.35      38.54       -25.92      
C           125.69      39.35       -20.34      
C           127.27      37.53       -19.73      
C           122.97      36.94       -26.19      
C           124.54      34.86       -26.19      
H           123.04      35.77       -23.35      
H           127.21      38.4        -22.98      
H           124.83      37.04       -28.53      
H           128.01      39.11       -25.29      
H           124.77      37.86       -17.62      
H           122.14      35.03       -20.94      
H           126.02      39.84       -19.43      
H           126.37      39.79       -21.1       
H           124.69942   39.72058    -20.60368   
H           127.89      38.34       -20.05      
H           127.21      37.54       -18.68      
H           127.7383    36.5934     -20.0326    
H           124.86      34.66       -27.16      
H           125.34      34.51       -25.72      
H           123.78131   34.10861    -25.97115   
H           122.24      36.44       -25.44      
H           122.78      36.7        -27.22      
H           122.97      38.0248     -26.08365   
H           122.54      37.48       -16.02      
H           126.37      38.21       -30.48      
S           120.75      35.32       -18.37      
C           122.26      36.87       -16.84      
C           121.09      36.24       -16.85      
C           129.42      40.85       -33.65      
C           130.18      40.92       -32.42      
C           128.27      40.2        -33.4       
N           131.4       41.48       -32.28      
N           130.65      40.83       -30.24      
O           131.69      41.33       -30.95      
H           126.81      39.27       -32.2       
H           127.49      40.17       -34.19      
C           127.8       39.76       -32.12      
C           129.72      40.53       -31.15      
C           128.5       39.87       -30.97      
C           134.72      38.31       -48.68      
C           133.42      38.33       -48.3       
S           135.65      39.32       -47.63      
C           131.17      40.69       -43.12      
C           132.6       40.82       -43.32      
C           133.36      41.54       -42.35      
C           132.82      41.8        -41.14      
C           131.42      41.53       -40.9       
C           130.55      41.1        -41.94      
C           133.56      42.06       -39.83      
C           132.48      41.84       -38.8       
C           131.22      41.74       -39.49      
C           130.59      39.97       -44.34      
C           131.83      39.84       -45.29      
C           132.99      40.37       -44.7       
C           132.58      41.64       -37.45      
C           131.39      41.48       -36.72      
C           130.12      41.49       -37.42      
C           130.05      41.53       -38.78      
C           131.88      39.28       -46.5       
C           133.11      39.06       -47.09      
C           134.28      39.66       -46.57      
C           134.24      40.25       -45.33      
C           133.97      43.58       -39.76      
C           134.8       41.11       -39.61      
C           129.54      40.94       -44.99      
C           129.92      38.63       -44.08      
H           129.45      40.86       -41.65      
H           134.39      41.81       -42.59      
H           131.03      38.82       -46.96      
H           135.14      40.54       -44.84      
H           133.48      41.8        -36.95      
H           129.1       41.32       -39.18      
H           134.96      43.64       -40.21      
H           133.92      43.98       -38.75      
H           133.28753   44.19848    -40.34294   
H           135.36      41.41       -40.46      
H           135.27      41.16       -38.65      
H           134.52315   40.06487    -39.74843   
H           128.95      38.85       -43.66      
H           129.76      38.13       -45.02      
H           130.4888    37.97995    -43.41517   
H           129.01      40.38       -45.78      
H           128.83      41.17       -44.21      
H           130.03571   41.83227    -45.3724    
H           131.86      41.6        -34.54      
H           132.57      37.85       -48.8       
S           128.76      41.25       -36.28      
C           131.11      41.49       -35.33      
C           129.88      41.23       -34.96      
C           136.32      36.89       -52.67      
C           137.18      36.99       -51.51      
C           134.99      37.11       -52.43      
N           138.44      36.82       -51.37      
N           137.63      37.49       -49.31      
O           138.64      36.89       -49.99      
H           133.5       37.71       -51.01      
H           134.27      36.87       -53.2       
C           134.53      37.52       -51.09      
C           136.71      37.48       -50.22      
C           135.33      37.78       -49.97      
C           139.35      26.67       -64.53      
C           138.2       27.44       -64.59      
S           140.54      27.49       -63.53      
C           137.43      32.41       -61.23      
C           138.78      32.03       -61.35      
C           139.85      32.45       -60.6       
C           139.49      33.33       -59.56      
C           138.16      33.79       -59.45      
C           137.13      33.33       -60.24      
C           140.39      33.97       -58.45      
C           139.33      34.64       -57.57      
C           138.01      34.54       -58.23      
C           136.52      31.76       -62.29      
C           137.49      30.71       -62.83      
C           138.81      30.84       -62.24      
C           139.42      35.17       -56.3       
C           138.25      35.59       -55.64      
C           137.04      35.43       -56.29      
C           136.86      34.95       -57.57      
C           137.27      29.67       -63.74      
C           138.25      28.69       -63.92      
C           139.52      28.86       -63.25      
C           139.86      29.96       -62.46      
C           141.32      34.95       -59.13      
C           141.18      32.9        -57.78      
C           136.1       32.89       -63.28      
C           135.23      31.13       -61.67      
H           136.08      33.66       -60.18      
H           140.88      32.29       -60.97      
H           136.3       29.54       -64.29      
H           140.88      30.12       -62.02      
H           140.39      35.35       -55.91      
H           135.89      34.57       -57.91      
H           142.31      34.66       -58.96      
H           141.21      34.77       -60.22      
H           141.02783   35.9904     -58.98748   
H           141.98      32.56       -58.41      
H           141.59      33.42       -56.85      
H           140.48502   32.14054    -57.42177   
H           134.59      31.9        -61.31      
H           134.76      30.51       -62.45      
H           135.52168   30.45415    -60.8661    
H           135.07      32.75       -63.69      
H           136.0       33.85       -62.77      
H           136.77307   33.04532    -64.12318   
H           139.02      36.42       -53.73      
H           137.26      27.05       -65.0       
S           135.64      35.85       -55.28      
C           138.1       36.23       -54.39      
C           136.82      36.35       -53.93      
C           140.41      22.69       -65.74      
C           139.08      23.0        -65.29      
C           141.29      23.73       -65.78      
N           137.99      22.22       -65.23      
N           137.46      24.3        -64.53      
O           136.99      23.06       -64.82      
H           141.76      25.8        -65.42      
H           142.31      23.54       -66.16      
C           140.97      25.06       -65.36      
C           138.72      24.31       -64.85      
C           139.67      25.35       -64.94      
C           145.19      7.63        -70.72      
C           144.69      7.91        -69.48      
S           144.87      8.9         -71.84      
C           142.04      13.13       -67.91      
C           142.49      13.07       -69.28      
C           142.69      14.22       -70.06      
C           142.37      15.44       -69.47      
C           141.73      15.42       -68.17      
C           141.56      14.26       -67.35      
C           142.51      16.82       -70.1       
C           142.01      17.61       -68.87      
C           141.48      16.87       -67.85      
C           142.22      11.84       -67.18      
C           142.68      10.94       -68.3       
C           142.89      11.74       -69.48      
C           141.98      18.97       -68.81      
C           141.38      19.59       -67.68      
C           140.91      18.8        -66.55      
C           140.98      17.4        -66.61      
C           143.18      9.62        -68.25      
C           143.92      9.1         -69.35      
C           144.07      9.85        -70.53      
C           143.62      11.21       -70.56      
C           141.55      16.86       -71.39      
C           143.95      17.11       -70.45      
C           140.96      11.29       -66.5       
C           143.35      11.93       -66.13      
H           141.36      14.4        -66.31      
H           143.19      14.14       -71.06      
H           143.28      9.1         -67.26      
H           143.9       11.87       -71.43      
H           142.51      19.53       -69.59      
H           140.74      16.73       -65.74      
H           142.05      16.55       -72.33      
H           140.62      16.3        -71.3       
H           141.17669   17.87014    -71.55836   
H           144.16      16.5        -71.34      
H           143.95      18.14       -70.8       
H           144.68242   16.86344    -69.68132   
H           143.01      12.73       -65.39      
H           143.36      10.99       -65.49      
H           144.3007    12.26131    -66.54773   
H           140.68      11.97       -65.71      
H           141.18      10.32       -66.05      
H           140.1251    11.22841    -67.19803   
H           141.49      21.82       -68.11      
H           144.72      7.24        -68.62      
S           140.3       19.9        -65.33      
C           141.22      21.02       -67.4       
C           140.72      21.31       -66.24      
C           147.44      4.09        -72.14      
C           146.87      4.14        -70.86      
C           147.15      5.2         -72.93      
N           146.89      3.16        -69.93      
N           145.9       5.03        -69.18      
O           146.32      3.75        -68.82      
H           146.38      7.21        -73.18      
H           147.46      5.28        -74.03      
C           146.42      6.35        -72.44      
C           146.19      5.3         -70.43      
C           145.9       6.47        -71.19      
C           155.5       -8.92       -79.04      
C           154.83      -7.98       -79.76      
S           155.25      -8.82       -77.38      
C           151.97      -3.3        -77.15      
C           152.43      -4.27       -76.25      
C           152.35      -4.05       -74.86      
C           151.62      -2.95       -74.39      
C           151.16      -1.98       -75.31      
C           151.44      -2.11       -76.69      
C           151.26      -2.55       -72.89      
C           150.56      -1.18       -73.23      
C           150.46      -0.97       -74.61      
C           152.16      -3.83       -78.58      
C           152.91      -5.11       -78.34      
C           153.11      -5.35       -76.97      
C           150.1       -0.24       -72.34      
C           149.41      0.89        -72.67      
C           149.26      1.11        -74.03      
C           149.75      0.17        -74.99      
C           153.37      -5.98       -79.31      
C           154.13      -7.05       -78.9       
C           154.27      -7.36       -77.51      
C           153.77      -6.5        -76.55      
C           152.48      -2.43       -71.98      
C           150.19      -3.58       -72.4       
C           152.95      -2.79       -79.38      
C           150.77      -4.15       -79.23      
H           151.19      -1.34       -77.4       
H           152.74      -4.88       -74.19      
H           153.25      -5.89       -80.37      
H           153.88      -6.68       -75.41      
H           150.07      -0.43       -71.28      
H           149.71      0.42        -76.1       
H           152.1       -2.4        -70.9       
H           153.09      -3.27       -72.26      
H           153.07531   -1.53028    -72.13559   
H           150.65      -4.61       -72.34      
H           150.03      -3.38       -71.32      
H           149.27888   -3.60135    -72.99792   
H           151.05      -4.78       -80.12      
H           149.99      -4.57       -78.6       
H           150.28575   -3.30623    -79.72159   
H           152.42      -1.85       -79.36      
H           153.04      -3.15       -80.41      
H           153.92218   -2.5984     -78.92584   
H           148.84      1.87        -70.78      
H           154.92      -7.7        -80.83      
S           148.34      2.59        -74.31      
C           148.93      1.96        -71.84      
C           148.31      2.99        -72.57      
C           158.06      -12.29      -80.56      
C           157.84      -11.11      -81.39      
C           157.37      -12.28      -79.41      
N           158.34      -10.79      -82.52      
N           157.01      -9.06       -81.84      
O           157.88      -9.58       -82.78      
H           156.19      -11.35      -77.88      
H           157.43      -13.2       -78.81      
C           156.52      -11.21      -78.94      
C           156.96      -10.02      -80.91      
C           156.29      -9.99       -79.6       
C           164.01      -27.56      -82.44      
C           162.73      -27.16      -82.39      
S           165.11      -26.19      -82.55      
C           160.68      -21.49      -82.04      
C           162.1       -21.57      -82.38      
C           162.79      -20.41      -82.75      
C           162.22      -19.16      -82.7       
C           160.85      -19.13      -82.27      
C           160.05      -20.24      -81.99      
C           162.79      -17.73      -82.7       
C           161.52      -16.89      -82.52      
C           160.43      -17.7       -82.23      
C           160.05      -22.86      -82.09      
C           161.28      -23.74      -82.19      
C           162.5       -22.98      -82.29      
C           161.4       -15.53      -82.44      
C           160.25      -14.98      -81.9       
C           159.28      -15.82      -81.54      
C           159.3       -17.23      -81.76      
C           161.28      -25.07      -82.01      
C           162.5       -25.72      -82.28      
C           163.76      -25.06      -82.47      
C           163.71      -23.64      -82.48      
C           163.39      -17.61      -84.11      
C           163.83      -17.45      -81.58      
C           159.06      -23.24      -83.34      
C           159.34      -23.18      -80.73      
H           158.99      -20.23      -81.81      
H           163.81      -20.46      -83.07      
H           160.37      -25.6       -81.68      
H           164.64      -23.06      -82.52      
H           162.26      -14.93      -82.67      
H           158.5       -17.89      -81.42      
H           164.39      -18.02      -84.16      
H           163.57      -16.52      -84.39      
H           162.74037   -18.02912   -84.87838   
H           163.52      -17.91      -80.69      
H           163.77      -16.39      -81.3       
H           164.87701   -17.67857   -81.77908   
H           158.49      -22.61      -80.63      
H           158.93      -24.25      -80.86      
H           159.9301    -22.94252   -79.84485   
H           158.19      -22.6       -83.21      
H           158.73      -24.24      -83.09      
H           159.55218   -23.11012   -84.30384   
H           160.56      -12.8       -82.0       
H           161.86      -27.77      -82.15      
S           157.96      -14.96      -80.8       
C           159.91      -13.63      -81.67      
C           158.71      -13.43      -81.01      
C           165.18      -31.97      -82.1       
C           166.09      -30.89      -81.94      
C           164.02      -31.45      -82.63      
N           167.4       -30.9       -81.48      
N           166.86      -28.7       -81.71      
O           167.83      -29.58      -81.42      
H           162.77      -29.79      -83.23      
H           163.18      -32.1       -82.99      
C           163.74      -30.01      -82.76      
C           165.82      -29.42      -82.04      
C           164.49      -28.96      -82.3       
C           167.03      -48.3       -79.36      
C           165.85      -47.77      -79.72      
S           168.24      -47.02      -79.17      
C           165.23      -41.73      -80.8       
C           166.52      -42.14      -80.39      
C           167.57      -41.23      -80.33      
C           167.38      -39.89      -80.6       
C           166.05      -39.45      -81.02      
C           164.93      -40.38      -81.1       
C           168.34      -38.72      -80.67      
C           167.37      -37.56      -80.97      
C           166.02      -38.0       -81.02      
C           164.28      -42.93      -80.72      
C           165.17      -44.0       -80.23      
C           166.45      -43.55      -80.02      
C           167.65      -36.22      -80.96      
C           166.6       -35.38      -81.27      
C           165.25      -35.86      -81.27      
C           164.92      -37.18      -81.15      
C           164.91      -45.37      -80.22      
C           165.92      -46.31      -79.94      
C           167.17      -45.73      -79.56      
C           167.44      -44.39      -79.57      
C           169.41      -39.01      -81.73      
C           168.98      -38.66      -79.28      
C           163.51      -43.18      -82.02      
C           163.24      -42.89      -79.55      
H           163.9       -40.09      -81.45      
H           168.54      -41.59      -80.05      
H           163.93      -45.73      -80.52      
H           168.44      -44.01      -79.23      
H           168.67      -35.92      -80.93      
H           163.99      -37.61      -81.25      
H           170.01      -39.85      -81.51      
H           169.0       -39.26      -82.69      
H           170.10269   -38.20758   -81.98376   
H           169.22      -39.74      -78.94      
H           169.87      -38.11      -79.42      
H           168.40854   -38.05238   -78.57834   
H           162.7       -43.81      -79.45      
H           163.87      -42.77      -78.64      
H           162.4809    -42.10981   -79.60623   
H           162.87      -42.29      -82.14      
H           162.87      -44.04      -81.84      
H           164.1468    -43.29321   -82.89737   
H           167.64      -33.49      -81.88      
H           164.99      -48.34      -79.95      
S           164.09      -34.57      -81.58      
C           166.67      -34.02      -81.77      
C           165.46      -33.42      -81.85      
C           168.61      -52.4       -79.24      
C           167.23      -52.19      -79.28      
C           169.3       -51.28      -79.07      
N           166.3       -53.07      -79.53      
N           165.36      -50.96      -79.5       
O           165.14      -52.3       -79.57      
H           169.54      -49.14      -78.97      
H           170.39      -51.4       -79.08      
C           168.81      -49.92      -79.19      
C           166.69      -50.84      -79.38      
C           167.5       -49.64      -79.25      
H           102.24      49.68       39.68       
H           169.05      -53.38      -79.53      
