612

C           125.94      32.74       21.88       
C           125.41      33.99       21.65       
S           127.1       32.84       23.22       
C           127.04      39.12       24.52       
C           127.76      37.99       24.92       
C           128.8       38.12       25.77       
C           129.31      39.41       26.14       
C           128.64      40.52       25.69       
C           127.47      40.35       24.97       
C           130.57      39.77       26.97       
C           130.53      41.33       26.78       
C           129.28      41.72       26.21       
C           126.1       38.87       23.38       
C           126.14      37.33       23.37       
C           127.18      36.85       24.22       
C           131.43      42.32       27.02       
C           131.07      43.6        26.91       
C           129.87      44.0        26.29       
C           128.96      43.02       25.83       
C           125.57      36.41       22.51       
C           125.89      35.04       22.45       
C           126.87      34.57       23.45       
C           127.55      35.44       24.25       
C           131.79      39.21       26.19       
C           130.48      39.28       28.42       
C           126.59      39.58       22.1        
C           124.66      39.25       23.77       
H           126.96      41.23       24.58       
H           129.31      37.2        26.12       
H           124.92      36.75       21.71       
H           128.34      35.12       24.92       
H           132.45      42.13       27.33       
H           127.95      43.26       25.36       
H           131.87      38.17       26.17       
H           132.64      39.64       26.7        
H           131.79732   39.53928    25.15095    
H           129.43      39.37       28.88       
H           130.98      39.87       29.13       
H           130.69701   38.21663    28.52127    
H           124.27      38.31       24.24       
H           124.81      39.85       24.62       
H           123.97622   39.60292    22.99799    
H           126.55      40.62       22.36       
H           126.07      39.4        21.18       
H           127.60578   39.31154    21.80978    
H           132.81      44.6        27.55       
H           124.67      34.18       20.85       
S           129.69      45.75       26.3        
C           131.85      44.75       27.15       
C           131.3       45.96       26.95       
C           125.21      28.74       20.19       
C           124.14      29.72       20.1        
C           126.31      29.15       20.82       
N           122.92      29.73       19.63       
N           123.29      31.83       20.3        
O           122.32      30.95       19.82       
H           127.51      30.76       21.6        
H           127.21      28.47       20.84       
C           126.47      30.5        21.26       
C           124.36      31.08       20.58       
C           125.58      31.5        21.24       
C           126.7       17.35       8.18        
C           125.67      18.23       8.13        
S           127.79      17.69       9.48        
C           125.28      22.49       12.67       
C           126.4       21.57       12.74       
C           127.12      21.56       13.95       
C           126.67      22.37       15.0        
C           125.63      23.33       14.82       
C           125.01      23.42       13.59       
C           127.35      22.56       16.42       
C           126.55      23.78       16.92       
C           125.49      24.15       16.06       
C           124.54      22.3        11.35       
C           125.27      21.04       10.75       
C           126.39      20.75       11.53       
C           126.59      24.31       18.2        
C           125.83      25.49       18.45       
C           124.87      25.89       17.45       
C           124.66      25.26       16.29       
C           124.95      20.3        9.63        
C           125.68      19.26       9.24        
C           126.8       19.03       10.06       
C           127.28      19.83       11.17       
C           128.87      22.9        16.21       
C           127.1       21.34       17.34       
C           124.75      23.61       10.56       
C           123.05      22.05       11.48       
H           124.08      24.04       13.5        
H           128.03      20.96       14.09       
H           124.1       20.54       8.95        
H           128.18      19.59       11.69       
H           127.18      23.91       19.05       
H           123.93      25.61       15.56       
H           129.42      22.21       15.58       
H           129.19      22.87       17.23       
H           129.12166   23.88566    15.81853    
H           126.02      21.24       17.58       
H           127.55      21.5        18.34       
H           127.45018   20.3665     16.99682    
H           122.61      22.9        12.02       
H           122.52      22.04       10.5        
H           122.85425   21.02931    11.80858    
H           123.78      24.03       10.32       
H           125.12      24.32       11.26       
H           125.44341   23.49793    9.7265      
H           126.75      26.27       20.34       
H           124.96      18.24       7.28        
S           124.16      27.42       17.99       
C           125.98      26.36       19.58       
C           125.17      27.46       19.44       
C           127.86      14.32       5.22        
C           127.98      14.12       6.55        
C           127.5       15.59       4.89        
N           128.33      13.02       7.17        
N           127.91      14.57       8.73        
O           128.37      13.37       8.47        
H           126.72      17.49       5.56        
H           127.54      15.93       3.86        
C           126.97      16.5        5.86        
C           127.61      15.05       7.54        
C           126.99      16.27       7.19        
C           134.07      1.5         -3.34       
C           134.79      2.13        -2.32       
S           132.74      2.41        -3.99       
C           132.6       6.89        0.6         
C           131.87      6.55        -0.56       
C           130.74      7.23        -1.0        
C           130.37      8.37        -0.24       
C           131.06      8.68        1.0         
C           132.1       7.82        1.48        
C           129.28      9.4         -0.53       
C           129.36      10.31       0.75        
C           130.38      9.87        1.59        
C           133.9       6.15        0.66        
C           133.79      5.17        -0.51       
C           132.51      5.39        -1.16       
C           128.66      11.44       1.08        
C           128.88      12.12       2.31        
C           129.91      11.6        3.13        
C           130.68      10.51       2.81        
C           134.67      4.2         -0.89       
C           134.22      3.36        -1.91       
C           133.02      3.57        -2.64       
C           132.22      4.67        -2.29       
C           127.98      8.53        -0.73       
C           129.63      10.19       -1.83       
C           134.11      5.36        1.98        
C           135.12      7.08        0.5         
H           132.65      8.15        2.38        
H           130.14      6.95        -1.89       
H           135.64      4.08        -0.45       
H           131.32      4.8         -2.86       
H           127.82      11.78       0.39        
H           131.43      10.17       3.54        
H           128.18      7.76        -1.59       
H           127.78      8.07        0.17        
H           127.07183   9.03997     -1.05135    
H           129.84      9.6         -2.7        
H           128.77      10.78       -2.16       
H           130.53107   10.78587    -1.68467    
H           135.55      7.39        1.45        
H           135.93      6.54        -0.08       
H           135.01324   7.95543     -0.14056    
H           134.69      4.44        1.83        
H           134.75      5.84        2.65        
H           133.22895   4.96078     2.48247     
H           127.21      13.54       2.52        
H           135.7       1.72        -1.8        
S           129.94      12.47       4.62        
C           128.1       13.17       2.96        
C           128.43      13.37       4.24        
C           134.82      -2.55       -4.89       
C           135.94      -1.66       -4.67       
C           133.61      -2.01       -4.53       
N           137.22      -1.77       -4.86       
N           136.83      0.32        -4.02       
O           137.78      -0.64       -4.46       
H           132.39      -0.31       -3.84       
H           132.82      -2.7        -4.39       
C           133.36      -0.66       -4.16       
C           135.66      -0.28       -4.19       
C           134.39      0.23        -3.98       
C           135.9       -19.06      -6.56       
C           134.67      -18.43      -6.4        
S           137.27      -17.98      -6.65       
C           134.42      -12.34      -5.61       
C           135.66      -12.88      -5.92       
C           136.71      -12.02      -6.1        
C           136.49      -10.62      -6.03       
C           135.21      -10.11      -5.72       
C           134.21      -10.99      -5.46       
C           137.46      -9.51       -6.42       
C           136.62      -8.21       -6.09       
C           135.29      -8.63       -5.74       
C           133.4       -13.47      -5.57       
C           134.24      -14.72      -5.82       
C           135.58      -14.32      -5.98       
C           136.98      -6.88       -6.14       
C           135.98      -5.87       -5.85       
C           134.62      -6.32       -5.57       
C           134.29      -7.68       -5.5        
C           133.88      -16.06      -5.85       
C           134.89      -17.02      -6.11       
C           136.22      -16.59      -6.33       
C           136.57      -15.24      -6.3        
C           137.93      -9.67       -7.87       
C           138.7       -9.48       -5.46       
C           132.37      -13.28      -6.68       
C           132.62      -13.47      -4.2        
H           133.36      -10.61      -5.03       
H           137.7       -12.39      -6.34       
H           132.89      -16.38      -5.74       
H           137.63      -14.9       -6.44       
H           138.06      -6.52       -6.28       
H           133.24      -8.06       -5.19       
H           138.22      -10.64      -8.04       
H           137.04      -9.38       -8.53       
H           138.70081   -8.96863    -8.18943    
H           139.38      -10.31      -5.58       
H           139.19      -8.55       -5.58       
H           138.43915   -9.5223     -4.40252    
H           132.05      -12.53      -4.12       
H           131.99      -14.3       -4.09       
H           133.2618    -13.55971   -3.32356    
H           131.77      -12.37      -6.68       
H           131.53      -14.02      -6.54       
H           132.77194   -13.37872   -7.68837    
H           137.11      -3.98       -5.87       
H           133.75      -18.94      -6.63       
S           133.63      -4.94       -5.16       
C           136.18      -4.48       -5.65       
C           135.03      -3.88       -5.26       
C           136.76      -23.04      -8.23       
C           135.42      -22.63      -7.83       
C           137.71      -22.13      -7.81       
N           134.33      -23.38      -7.81       
N           133.9       -21.28      -7.11       
O           133.39      -22.5       -7.46       
H           138.19      -20.2       -7.0        
H           138.8       -22.42      -7.79       
C           137.39      -20.87      -7.21       
C           135.18      -21.35      -7.26       
C           136.16      -20.42      -7.02       
C           141.78      -30.1       -22.09      
C           142.61      -29.76      -21.13      
S           140.09      -30.01      -21.64      
C           140.66      -28.32      -15.51      
C           139.69      -28.5       -16.51      
C           138.31      -28.32      -16.25      
C           137.94      -27.79      -15.02      
C           138.94      -27.62      -14.06      
C           140.24      -27.91      -14.25      
C           136.55      -27.27      -14.56      
C           136.96      -26.78      -13.16      
C           138.3       -27.04      -12.88      
C           142.04      -28.37      -16.15      
C           141.77      -28.69      -17.6       
C           140.38      -28.82      -17.79      
C           136.07      -26.22      -12.2       
C           136.74      -25.64      -11.07      
C           138.14      -25.66      -10.93      
C           138.89      -26.48      -11.76      
C           142.6       -28.97      -18.71      
C           141.96      -29.44      -19.89      
C           140.55      -29.57      -20.01      
C           139.69      -29.15      -19.0       
C           135.59      -28.44      -14.47      
C           136.13      -26.08      -15.52      
C           142.93      -29.37      -15.36      
C           142.69      -26.95      -16.27      
H           140.95      -27.73      -13.47      
H           137.51      -28.48      -17.04      
H           143.68      -28.91      -18.63      
H           138.58      -29.12      -18.96      
H           135.0       -26.16      -12.37      
H           139.94      -26.69      -11.56      
H           135.62      -28.82      -15.45      
H           134.53      -28.13      -14.32      
H           136.02475   -29.22398   -13.84994   
H           136.06      -26.48      -16.5       
H           135.11      -25.76      -15.24      
H           136.78656   -25.21454   -15.43047   
H           143.56      -27.04      -16.86      
H           141.94      -26.33      -16.89      
H           142.91692   -26.37905   -15.36965   
H           143.13      -28.97      -14.39      
H           142.27      -30.21      -15.21      
H           143.8205    -29.73333   -15.87293   
H           135.02      -24.71      -9.97       
H           143.68      -29.7       -21.25      
S           138.68      -24.5       -9.66       
C           136.09      -24.81      -10.03      
C           136.97      -24.09      -9.23       
C           142.72      -30.68      -26.47      
C           143.75      -30.81      -25.49      
C           141.48      -30.6       -25.94      
N           145.01      -31.11      -25.67      
N           144.63      -30.87      -23.44      
O           145.53      -31.03      -24.46      
H           140.11      -30.22      -24.18      
H           140.59      -30.53      -26.6       
C           141.17      -30.42      -24.55      
C           143.48      -30.69      -24.1       
C           142.15      -30.43      -23.52      
C           147.69      -27.06      -41.49      
C           147.67      -26.09      -40.54      
S           146.63      -28.4       -41.09      
C           145.15      -27.16      -35.09      
C           144.81      -28.09      -36.12      
C           144.08      -29.29      -35.93      
C           143.83      -29.59      -34.58      
C           144.18      -28.67      -33.55      
C           144.84      -27.47      -33.76      
C           143.04      -30.75      -34.02      
C           142.87      -30.34      -32.56      
C           143.7       -29.27      -32.32      
C           145.89      -25.94      -35.7       
C           145.88      -26.29      -37.19      
C           145.45      -27.64      -37.38      
C           142.22      -30.98      -31.5       
C           142.58      -30.55      -30.18      
C           143.44      -29.46      -30.03      
C           143.92      -28.82      -31.12      
C           146.57      -25.7       -38.25      
C           146.78      -26.39      -39.44      
C           146.17      -27.67      -39.58      
C           145.42      -28.32      -38.55      
C           143.88      -32.05      -34.22      
C           141.67      -30.98      -34.74      
C           147.28      -25.93      -35.02      
C           145.1       -24.6       -35.49      
H           145.28      -26.93      -32.98      
H           143.95      -30.13      -36.66      
H           147.03      -24.72      -38.19      
H           145.05      -29.36      -38.6       
H           141.6       -31.83      -31.65      
H           144.63      -27.94      -31.01      
H           143.3       -32.94      -34.12      
H           144.13      -32.06      -35.25      
H           144.83656   -31.98428   -33.70156   
H           141.82      -30.98      -35.82      
H           141.14      -31.87      -34.56      
H           141.03455   -30.10625   -34.59558   
H           145.14      -24.22      -34.43      
H           145.78      -24.02      -36.18      
H           144.08228   -24.56466   -35.87871   
H           148.0       -25.49      -35.68      
H           147.41      -25.3       -34.12      
H           147.73627   -26.89957   -34.82038   
H           141.76      -32.12      -28.74      
H           148.28      -25.17      -40.61      
S           143.97      -29.18      -28.36      
C           142.26      -31.14      -28.94      
C           142.93      -30.49      -27.9       
C           150.28      -26.96      -45.06      
C           149.51      -28.09      -44.66      
C           150.11      -25.91      -44.17      
N           149.41      -29.29      -45.21      
N           148.19      -29.34      -43.38      
O           148.54      -30.0       -44.5       
H           149.03      -24.99      -42.63      
H           150.75      -25.07      -44.46      
C           149.11      -25.9       -43.16      
C           148.64      -28.11      -43.53      
C           148.44      -26.99      -42.72      
C           161.77      -24.41      -56.49      
C           161.3       -23.5       -55.58      
S           160.56      -25.63      -56.83      
C           156.88      -24.74      -51.85      
C           156.79      -25.5       -53.0       
C           155.82      -26.5       -53.05      
C           154.84      -26.59      -52.07      
C           154.98      -25.84      -50.92      
C           156.05      -24.92      -50.81      
C           153.8       -27.71      -51.78      
C           153.22      -27.29      -50.42      
C           154.04      -26.23      -49.92      
C           157.75      -23.47      -51.96      
C           158.44      -23.98      -53.25      
C           157.87      -25.08      -53.9       
C           152.28      -27.85      -49.61      
C           152.04      -27.23      -48.36      
C           152.79      -26.16      -47.91      
C           153.79      -25.59      -48.75      
C           159.52      -23.33      -53.81      
C           160.1       -23.91      -54.91      
C           159.55      -25.02      -55.58      
C           158.38      -25.59      -55.13      
C           154.56      -29.05      -51.66      
C           152.68      -27.65      -52.82      
C           158.65      -23.3       -50.72      
C           156.94      -22.18      -52.34      
H           156.2       -24.38      -49.84      
H           155.8       -27.23      -53.91      
H           160.05      -22.52      -53.28      
H           157.88      -26.39      -55.73      
H           151.69      -28.78      -49.8       
H           154.41      -24.77      -48.46      
H           154.69      -29.42      -52.7       
H           155.6       -28.86      -51.26      
H           154.14133   -29.86605   -51.07103   
H           153.11      -27.25      -53.69      
H           152.32      -28.69      -53.05      
H           151.83972   -27.00199   -52.57077   
H           157.69      -21.51      -52.86      
H           156.17      -22.36      -53.15      
H           156.59224   -21.52622   -51.54016   
H           158.06      -23.01      -49.83      
H           159.49      -22.6       -50.81      
H           159.15273   -24.24261   -50.50355   
H           150.47      -28.54      -47.52      
H           161.94      -22.73      -55.24      
S           152.29      -25.67      -46.28      
C           151.1       -27.64      -47.41      
C           151.06      -26.85      -46.25      
C           166.07      -25.06      -57.46      
C           165.04      -25.63      -58.31      
C           165.6       -24.31      -56.4       
N           165.13      -26.55      -59.21      
N           162.99      -26.03      -59.05      
O           163.87      -26.75      -59.67      
H           163.9       -23.61      -55.31      
H           166.22      -23.79      -55.74      
C           164.22      -24.19      -56.14      
C           163.65      -25.42      -58.04      
C           163.18      -24.65      -56.91      
C           179.72      -32.98      -55.46      
C           179.23      -32.04      -54.58      
S           179.03      -32.67      -57.04      
C           175.19      -27.8       -56.01      
C           175.56      -28.75      -57.01      
C           174.96      -28.7       -58.3       
C           173.77      -27.93      -58.36      
C           173.37      -27.1       -57.31      
C           174.13      -26.98      -56.18      
C           172.65      -28.06      -59.37      
C           171.7       -26.95      -58.92      
C           172.09      -26.49      -57.58      
C           175.95      -28.12      -54.74      
C           176.76      -29.38      -55.15      
C           176.56      -29.62      -56.55      
C           170.53      -26.54      -59.54      
C           169.54      -25.96      -58.68      
C           169.93      -25.61      -57.37      
C           171.15      -25.86      -56.81      
C           177.68      -30.09      -54.47      
C           178.36      -31.07      -55.12      
C           178.11      -31.29      -56.52      
C           177.22      -30.59      -57.23      
C           171.92      -29.43      -59.34      
C           173.13      -27.69      -60.8       
C           174.96      -28.5       -53.58      
C           177.02      -27.05      -54.33      
H           173.7       -26.41      -55.36      
H           175.4       -29.22      -59.18      
H           177.79      -29.99      -53.39      
H           177.05      -30.82      -58.28      
H           170.28      -26.86      -60.57      
H           171.26      -25.65      -55.76      
H           171.4       -29.62      -60.29      
H           172.69      -30.18      -59.4       
H           171.18727   -29.55805   -58.54325   
H           173.92      -28.31      -61.12      
H           172.39      -27.94      -61.58      
H           173.44116   -26.66244   -60.98814   
H           177.75      -27.5       -53.69      
H           177.66      -26.73      -55.16      
H           176.52374   -26.216     -53.83374   
H           174.45      -27.58      -53.25      
H           175.54      -28.85      -52.81      
H           174.17323   -29.19028   -53.88432   
H           167.59      -25.84      -59.78      
H           179.43      -32.08      -53.53      
S           168.63      -24.96      -56.39      
C           168.13      -25.65      -58.85      
C           167.48      -25.17      -57.71      
C           182.86      -36.02      -55.02      
C           181.84      -36.16      -56.04      
C           182.81      -34.82      -54.37      
N           181.57      -37.15      -56.91      
N           179.84      -35.76      -57.01      
O           180.44      -36.83      -57.54      
H           181.8       -33.02      -53.9       
H           183.66      -34.5       -53.75      
C           181.75      -33.89      -54.53      
C           180.75      -35.23      -56.12      
C           180.65      -34.05      -55.29      
C           198.88      -36.81      -56.12      
C           198.06      -36.9       -57.19      
S           198.08      -37.19      -54.61      
C           192.15      -38.56      -56.53      
C           192.83      -38.3       -55.33      
C           192.19      -38.21      -54.15      
C           190.85      -37.96      -54.15      
C           190.15      -38.11      -55.34      
C           190.77      -38.51      -56.5       
C           189.92      -37.71      -52.95      
C           188.67      -37.44      -53.75      
C           188.83      -37.67      -55.13      
C           193.17      -38.56      -57.74      
C           194.45      -38.05      -57.07      
C           194.24      -37.99      -55.66      
C           187.45      -37.16      -53.26      
C           186.33      -37.05      -54.17      
C           186.55      -37.21      -55.59      
C           187.78      -37.62      -56.05      
C           195.72      -37.75      -57.62      
C           196.76      -37.39      -56.82      
C           196.56      -37.46      -55.44      
C           195.27      -37.7       -54.88      
C           190.3       -36.53      -51.99      
C           189.61      -39.1       -52.2       
C           192.82      -37.59      -58.9       
C           193.38      -39.96      -58.41      
H           190.22      -38.61      -57.42      
H           192.71      -37.8       -53.27      
H           195.87      -37.82      -58.72      
H           195.16      -37.75      -53.82      
H           187.29      -36.95      -52.2       
H           187.86      -37.84      -57.11      
H           191.19      -36.77      -51.39      
H           189.56      -36.3       -51.24      
H           190.41754   -35.63804   -52.60538   
H           189.33      -39.83      -52.89      
H           188.72      -38.94      -51.54      
H           190.37264   -39.50581   -51.53532   
H           194.1       -39.9       -59.28      
H           193.82      -40.71      -57.72      
H           192.45515   -40.419     -58.75939   
H           191.89      -37.87      -59.31      
H           193.54      -37.71      -59.7       
H           192.74161   -36.53528   -58.63632   
H           184.68      -36.44      -52.89      
H           198.44      -36.74      -58.19      
S           185.09      -36.96      -56.46      
C           185.0       -36.7       -53.86      
C           184.17      -36.64      -54.94      
C           203.24      -36.04      -56.02      
C           202.41      -35.63      -57.13      
C           202.5       -36.58      -55.09      
N           202.82      -35.17      -58.3       
N           200.58      -35.4       -58.37      
O           201.76      -35.12      -59.08      
H           200.61      -37.43      -54.32      
H           202.94      -36.87      -54.15      
C           201.07      -36.8       -55.13      
C           201.02      -35.82      -57.18      
C           200.28      -36.41      -56.11      
C           219.4       -32.5       -53.62      
C           218.54      -31.92      -54.56      
S           218.59      -33.92      -52.89      
C           212.87      -33.86      -55.84      
C           213.6       -34.62      -54.86      
C           212.87      -35.66      -54.21      
C           211.47      -35.81      -54.44      
C           210.83      -35.0       -55.44      
C           211.53      -34.02      -56.22      
C           210.41      -36.68      -53.71      
C           209.16      -36.36      -54.49      
C           209.46      -35.43      -55.54      
C           213.8       -32.81      -56.37      
C           215.05      -32.92      -55.53      
C           214.95      -34.07      -54.67      
C           207.92      -36.87      -54.36      
C           206.88      -36.44      -55.2       
C           207.14      -35.43      -56.18      
C           208.46      -34.95      -56.44      
C           216.24      -32.2       -55.56      
C           217.27      -32.57      -54.73      
C           217.15      -33.68      -53.85      
C           216.03      -34.49      -53.8       
C           210.23      -36.31      -52.26      
C           210.5       -38.23      -53.84      
C           213.17      -31.36      -56.13      
C           214.14      -32.96      -57.87      
H           211.04      -33.45      -57.04      
H           213.5       -36.14      -53.4       
H           216.34      -31.4       -56.34      
H           215.95      -35.36      -53.22      
H           207.73      -37.61      -53.57      
H           208.69      -34.25      -57.27      
H           209.47      -37.02      -51.84      
H           211.12      -36.49      -51.67      
H           209.91162   -35.27872   -52.10773   
H           210.09      -38.78      -52.98      
H           209.97      -38.59      -54.71      
H           211.54266   -38.54703   -53.86114   
H           213.8       -32.14      -58.42      
H           215.24      -33.07      -57.95      
H           213.77308   -33.88089   -58.32325   
H           212.29      -31.41      -56.75      
H           213.74      -30.54      -56.39      
H           212.87053   -31.23879   -55.08898   
H           205.18      -37.44      -54.35      
H           218.77      -30.98      -55.13      
S           205.69      -34.98      -56.99      
C           205.49      -36.71      -55.07      
C           204.71      -35.96      -55.95      
C           223.53      -31.57      -52.5       
C           222.89      -30.83      -53.56      
C           222.76      -32.52      -51.91      
N           223.26      -29.7       -54.16      
N           221.09      -30.14      -54.63      
O           222.16      -29.31      -54.78      
H           221.0       -33.71      -51.8       
H           223.19      -33.08      -51.13      
C           221.43      -32.89      -52.31      
C           221.47      -31.07      -53.86      
C           220.73      -32.18      -53.27      
H           131.85      46.88       26.96       
H           224.56      -31.5       -52.22      
