612

C           142.75      39.85       14.16       
C           142.06      38.73       14.63       
S           142.11      41.25       14.92       
C           137.12      38.93       18.08       
C           137.71      40.19       17.8        
C           137.23      41.42       18.37       
C           135.97      41.32       19.12       
C           135.4       40.04       19.39       
C           136.0       38.87       18.93       
C           135.12      42.43       19.65       
C           133.94      41.69       20.21       
C           134.17      40.24       20.19       
C           138.09      37.8        17.63       
C           139.06      38.6        16.81       
C           138.98      39.98       17.14       
C           132.82      42.14       20.88       
C           132.04      41.19       21.57       
C           132.29      39.78       21.54       
C           133.34      39.33       20.8        
C           140.01      38.13       15.93       
C           140.96      39.03       15.48       
C           140.87      40.38       15.77       
C           139.91      40.88       16.64       
C           134.77      43.33       18.46       
C           135.76      43.17       20.89       
C           137.43      36.61       16.79       
C           138.83      37.18       18.8        
H           135.53      37.91       19.15       
H           137.8       42.32       18.22       
H           140.18      37.1        15.76       
H           139.78      41.92       16.77       
H           132.56      43.17       21.02       
H           133.6       38.23       20.91       
H           135.73      43.65       18.02       
H           134.16      44.16       18.81       
H           134.12783   42.79368    17.76137    
H           135.45      42.54       21.69       
H           135.31      44.21       21.13       
H           136.83659   43.34035    20.88319    
H           139.67      36.6        18.35       
H           139.26      38.07       19.33       
H           138.27876   36.54395    19.49259    
H           136.65      36.13       17.31       
H           138.22      35.83       16.56       
H           136.98141   37.03653    15.89282    
H           130.39      42.45       22.26       
H           142.26      37.77       14.21       
S           131.15      38.91       22.53       
C           130.81      41.49       22.25       
C           130.16      40.39       22.77       
C           145.48      40.09       10.72       
C           145.38      38.93       11.57       
C           144.74      41.18       11.27       
N           145.85      37.67       11.4        
N           144.83      37.8        13.39       
O           145.53      37.02       12.51       
H           143.33      41.99       12.53       
H           144.8       42.16       10.8        
C           143.89      41.06       12.42       
C           144.62      38.91       12.75       
C           143.8       39.98       13.16       
C           157.81      45.28       0.98        
C           156.81      46.11       1.39        
S           157.25      43.62       1.14        
C           151.98      44.24       4.62        
C           152.85      43.23       4.12        
C           152.57      41.91       4.31        
C           151.5       41.5        5.08        
C           150.72      42.48       5.69        
C           150.91      43.87       5.38        
C           151.16      40.07       5.59        
C           150.05      40.39       6.59        
C           149.72      41.8        6.53        
C           152.62      45.67       4.39        
C           153.68      45.24       3.37        
C           153.89      43.85       3.3         
C           149.14      39.5        7.17        
C           148.05      40.06       8.0         
C           147.84      41.48       7.97        
C           148.68      42.31       7.24        
C           154.57      46.02       2.73        
C           155.72      45.47       2.12        
C           155.91      44.05       2.17        
C           154.97      43.21       2.71        
C           152.3       39.45       6.36        
C           150.59      39.1        4.5         
C           153.35      46.22       5.61        
C           151.67      46.78       3.73        
H           150.29      44.62       5.85        
H           153.15      41.16       3.79        
H           154.43      47.08       2.69        
H           155.09      42.15       2.75        
H           149.24      38.4        7.0         
H           148.5       43.42       7.29        
H           153.23      39.46       5.84        
H           152.08      38.41       6.63        
H           152.47092   39.93428    7.32144     
H           149.57      39.52       4.29        
H           150.51      38.07       4.91        
H           151.1919    39.16763    3.59377     
H           152.16      47.76       3.82        
H           151.35      46.55       2.73        
H           150.68804   46.9139     4.18379     
H           153.88      47.08       5.24        
H           152.63      46.61       6.35        
H           153.94389   45.47056    6.13319     
H           147.16      38.33       9.15        
H           156.84      47.15       1.13        
S           146.62      41.95       9.09        
C           147.16      39.37       8.98        
C           146.4       40.27       9.63        
C           159.97      45.08       -2.83       
C           160.41      44.38       -1.69       
C           159.0       46.09       -2.59       
N           161.31      43.41       -1.58       
N           160.33      43.65       0.42        
O           161.3       42.98       -0.25       
H           157.51      46.87       -1.29       
H           158.65      46.72       -3.44       
C           158.36      46.21       -1.31       
C           159.75      44.51       -0.39       
C           158.69      45.49       -0.15       
C           160.98      37.99       -17.79      
C           159.93      38.72       -17.29      
S           162.41      38.05       -16.68      
C           159.86      41.71       -12.12      
C           161.08      40.98       -12.26      
C           162.08      41.03       -11.34      
C           161.77      41.56       -10.1       
C           160.61      42.28       -9.88       
C           159.65      42.44       -10.91      
C           162.73      41.71       -8.98       
C           161.89      42.5        -7.9        
C           160.63      42.87       -8.55       
C           158.78      41.32       -13.13      
C           159.67      40.67       -14.18      
C           160.98      40.42       -13.6       
C           162.21      42.69       -6.59       
C           161.26      43.46       -5.91       
C           160.11      44.02       -6.61       
C           159.79      43.76       -7.97       
C           159.3       40.02       -15.31      
C           160.21      39.29       -16.04      
C           161.54      39.14       -15.57      
C           161.91      39.59       -14.28      
C           163.94      42.51       -9.4        
C           163.16      40.35       -8.45       
C           158.15      42.61       -13.6       
C           157.71      40.23       -12.85      
H           158.77      43.08       -10.75      
H           162.97      40.48       -11.61      
H           158.24      40.07       -15.61      
H           162.87      39.4        -13.81      
H           163.22      42.5        -6.15       
H           158.89      44.09       -8.39       
H           164.55      42.45       -8.48       
H           164.56      41.97       -10.18      
H           163.66564   43.50636    -9.74656    
H           163.64      39.78       -9.31       
H           163.72      40.55       -7.52       
H           162.33569   39.69887    -8.15907    
H           156.76      40.53       -13.28      
H           157.87      39.28       -13.35      
H           157.58564   39.99509    -11.7929    
H           157.26      42.4        -14.22      
H           157.65      43.1        -12.76      
H           158.83674   43.25512    -14.148     
H           162.26      43.6        -3.98       
H           158.98      38.82       -17.75      
S           159.18      44.94       -5.48       
C           161.46      44.0        -4.6        
C           160.4       44.78       -4.18       
C           161.07      35.78       -21.71      
C           162.1       35.66       -20.75      
C           160.01      36.57       -21.29      
N           163.27      35.08       -20.82      
N           163.13      36.04       -18.76      
O           163.81      35.25       -19.57      
H           159.09      37.9        -19.86      
H           159.16      36.87       -21.89      
C           159.98      37.29       -20.04      
C           162.03      36.31       -19.49      
C           161.03      37.25       -19.14      
C           158.68      31.88       -37.57      
C           157.78      32.32       -36.66      
S           160.29      31.75       -36.81      
C           158.72      32.92       -30.79      
C           159.86      32.55       -31.51      
C           161.14      32.46       -30.86      
C           161.29      32.9        -29.57      
C           160.14      33.32       -28.91      
C           158.85      33.2        -29.46      
C           162.58      33.14       -28.81      
C           161.94      33.61       -27.47      
C           160.47      33.69       -27.54      
C           157.53      33.14       -31.66      
C           158.17      32.83       -33.03      
C           159.48      32.33       -32.89      
C           162.51      33.99       -26.27      
C           161.7       34.47       -25.2       
C           160.26      34.49       -25.31      
C           159.62      34.08       -26.46      
C           157.5       32.94       -34.24      
C           158.24      32.36       -35.33      
C           159.61      32.11       -35.19      
C           160.28      32.02       -33.94      
C           163.27      34.28       -29.61      
C           163.48      31.86       -28.69      
C           157.12      34.63       -31.6       
C           156.33      32.19       -31.39      
H           157.92      33.37       -28.87      
H           161.98      32.1        -31.48      
H           156.6       33.51       -34.41      
H           161.29      31.64       -33.92      
H           163.61      33.96       -26.16      
H           158.52      34.04       -26.53      
H           163.91      33.89       -30.34      
H           162.48      34.72       -30.22      
H           163.77411   35.02581    -28.9954    
H           163.78      31.51       -29.7       
H           164.4       32.1        -28.11      
H           162.96815   31.04957    -28.17104   
H           155.64      32.55       -30.59      
H           155.76      32.01       -32.28      
H           156.58075   31.19415    -31.02462   
H           156.77      34.96       -30.61      
H           156.39      34.75       -32.36      
H           157.9986    35.26172    -31.7307    
H           163.14      35.1        -23.65      
H           156.67      32.43       -36.87      
S           159.56      34.94       -23.78      
C           162.13      35.02       -23.92      
C           161.11      35.3        -23.07      
C           158.43      30.47       -41.81      
C           157.36      31.25       -41.21      
C           159.44      30.2        -40.93      
N           156.17      31.58       -41.67      
N           156.28      32.19       -39.57      
O           155.51      32.29       -40.67      
H           160.44      30.51       -39.06      
H           160.33      29.72       -41.28      
C           159.58      30.77       -39.6       
C           157.48      31.68       -39.84      
C           158.6       31.49       -38.96      
C           168.56      28.38       -53.59      
C           167.95      29.58       -53.57      
S           167.39      27.19       -52.97      
C           162.85      30.64       -50.42      
C           163.15      29.3        -50.74      
C           162.37      28.23       -50.33      
C           161.63      28.46       -49.2       
C           161.34      29.76       -48.86      
C           161.77      30.89       -49.62      
C           161.23      27.41       -48.11      
C           160.57      28.39       -47.16      
C           160.63      29.78       -47.61      
C           163.9       31.64       -51.06      
C           164.82      30.67       -51.75      
C           164.42      29.3        -51.44      
C           159.95      28.05       -45.99      
C           159.52      29.1        -45.13      
C           159.59      30.46       -45.55      
C           160.16      30.81       -46.76      
C           165.98      30.84       -52.46      
C           166.74      29.69       -52.77      
C           166.27      28.42       -52.43      
C           165.1       28.15       -51.78      
C           162.41      26.67       -47.41      
C           160.23      26.4        -48.54      
C           164.75      32.44       -50.04      
C           163.33      32.57       -52.18      
H           161.46      31.95       -49.28      
H           162.64      27.17       -50.53      
H           166.24      31.86       -52.75      
H           164.88      27.14       -51.47      
H           159.93      27.06       -45.57      
H           160.27      31.81       -47.09      
H           162.91      26.05       -48.1       
H           162.08      26.07       -46.5       
H           163.11286   27.36546    -46.95129   
H           160.79      25.76       -49.25      
H           159.74      25.91       -47.68      
H           159.47946   26.78917    -49.228     
H           164.0       33.43       -52.47      
H           163.2       31.92       -53.07      
H           162.37931   33.05244    -51.95297   
H           164.02      32.89       -49.4       
H           165.3       31.6        -49.51      
H           165.47721   33.15281    -50.42881   
H           159.0       28.04       -43.27      
H           168.42      30.47       -53.93      
S           158.99      31.53       -44.32      
C           159.07      29.0        -43.76      
C           158.65      30.18       -43.24      
C           172.24      26.87       -55.48      
C           171.88      28.26       -55.52      
C           171.36      26.13       -54.76      
N           172.47      29.31       -56.07      
N           170.69      30.17       -55.05      
O           171.69      30.37       -55.9       
H           169.6       25.93       -53.56      
H           171.49      25.05       -54.6       
C           170.23      26.67       -54.09      
C           170.69      28.85       -54.83      
C           169.82      27.97       -54.15      
C           182.7       18.04       -64.76      
C           182.14      17.54       -63.6       
S           182.43      19.8        -64.89      
C           178.52      20.89       -60.07      
C           178.93      21.54       -61.24      
C           178.52      22.81       -61.63      
C           177.66      23.46       -60.81      
C           177.2       22.81       -59.69      
C           177.69      21.57       -59.18      
C           177.45      24.93       -60.7       
C           176.35      25.01       -59.63      
C           176.25      23.72       -59.03      
C           179.07      19.49       -59.95      
C           179.86      19.39       -61.26      
C           179.86      20.66       -61.89      
C           175.73      26.13       -59.05      
C           174.96      25.87       -57.92      
C           174.84      24.62       -57.27      
C           175.53      23.56       -57.87      
C           180.57      18.3        -61.76      
C           181.41      18.52       -62.87      
C           181.4       19.77       -63.48      
C           180.61      20.83       -63.01      
C           176.93      25.16       -62.13      
C           178.75      25.66       -60.3       
C           177.96      18.39       -59.93      
C           179.99      19.41       -58.72      
H           177.31      21.06       -58.26      
H           178.85      23.29       -62.51      
H           180.5       17.33       -61.24      
H           180.67      21.74       -63.58      
H           175.85      27.16       -59.45      
H           175.47      22.65       -57.34      
H           177.78      25.27       -62.79      
H           176.4       24.26       -62.55      
H           176.23392   25.99529    -62.20657   
H           179.43      25.57       -61.15      
H           178.59      26.72       -60.27      
H           179.27383   25.30379    -59.41297   
H           179.51      19.4        -57.7       
H           180.54      18.49       -58.75      
H           180.77755   20.16239    -58.76219   
H           178.2       17.49       -59.31      
H           177.09      18.75       -59.33      
H           177.58031   18.00341    -60.87577   
H           174.14      27.92       -57.58      
H           182.25      16.48       -63.31      
S           173.72      24.67       -55.88      
C           174.16      26.88       -57.2       
C           173.35      26.33       -56.25      
C           184.52      15.83       -68.26      
C           184.41      15.27       -66.95      
C           184.12      17.16       -68.26      
N           184.73      14.08       -66.61      
N           184.01      15.05       -64.75      
O           184.41      13.92       -65.31      
H           183.16      18.93       -67.29      
H           184.13      17.65       -69.18      
C           183.56      17.9        -67.09      
C           183.9       15.95       -65.76      
C           183.49      17.36       -65.83      
C           189.48      7.45        -81.35      
C           190.03      8.68        -81.09      
S           188.7       6.7         -79.93      
C           188.92      11.54       -75.93      
C           188.28      10.32       -76.07      
C           187.42      9.79        -75.09      
C           187.14      10.53       -74.0       
C           187.75      11.82       -73.87      
C           188.65      12.36       -74.84      
C           186.08      10.24       -72.97      
C           186.16      11.53       -72.11      
C           187.11      12.45       -72.68      
C           189.57      11.97       -77.23      
C           189.58      10.63       -77.95      
C           188.81      9.65        -77.28      
C           185.37      11.9        -71.11      
C           185.41      13.23       -70.64      
C           186.35      14.13       -71.2       
C           187.22      13.75       -72.16      
C           190.08      10.36       -79.17      
C           189.85      9.04        -79.71      
C           189.2       8.1         -78.98      
C           188.69      8.37        -77.74      
C           186.34      8.94        -72.18      
C           184.67      10.24       -73.66      
C           191.06      12.47       -76.96      
C           188.68      13.0        -77.96      
H           189.08      13.39       -74.75      
H           186.98      8.8         -75.15      
H           190.59      11.05       -79.74      
H           187.99      7.7         -77.24      
H           184.61      11.16       -70.86      
H           187.99      14.46       -72.53      
H           185.34      8.45        -72.02      
H           186.83      8.22        -72.77      
H           186.82699   9.11444     -71.22057   
H           184.63      9.44        -74.42      
H           183.8       9.96        -73.01      
H           184.51005   11.13712    -74.25808   
H           187.7       12.51       -77.98      
H           188.4       13.81       -77.31      
H           189.01594   13.32133    -78.9459    
H           191.1       13.25       -76.23      
H           191.51      12.83       -77.92      
H           191.66927   11.66012    -76.55877   
H           183.94      13.19       -68.99      
H           190.46      9.28        -81.88      
S           186.07      15.7        -70.58      
C           184.62      13.77       -69.59      
C           184.86      15.11       -69.42      
C           188.02      5.7         -85.02      
C           188.53      7.05        -85.04      
C           188.04      5.14        -83.79      
N           188.66      7.94        -85.99      
N           189.52      8.87        -84.15      
O           188.99      9.08        -85.36      
H           188.46      5.06        -81.8       
H           187.57      4.12        -83.66      
C           188.6       5.67        -82.69      
C           189.14      7.64        -83.87      
C           189.19      6.92        -82.66      
C           175.55      1.49        -95.06      
C           175.69      1.23        -93.75      
S           177.01      2.28        -95.64      
C           180.68      2.07        -90.42      
C           180.75      2.77        -91.69      
C           181.84      3.52        -92.05      
C           182.88      3.72        -91.15      
C           182.82      3.09        -89.92      
C           181.78      2.21        -89.56      
C           184.03      4.67        -91.3       
C           184.72      4.44        -89.94      
C           183.99      3.49        -89.16      
C           179.41      1.27        -90.22      
C           178.68      1.7         -91.5       
C           179.55      2.34        -92.47      
C           185.9       5.1         -89.45      
C           186.23      4.81        -88.12      
C           185.52      3.83        -87.36      
C           184.42      3.23        -87.88      
C           177.45      1.26        -91.89      
C           176.95      1.52        -93.19      
C           177.8       2.11        -94.09      
C           179.13      2.52        -93.82      
C           183.5       6.11        -91.38      
C           185.11      4.3         -92.44      
C           178.6       1.66        -88.96      
C           179.63      -0.27       -90.32      
H           181.76      1.73        -88.57      
H           181.82      4.0         -93.04      
H           176.8       0.7         -91.22      
H           179.7       3.08        -94.57      
H           186.57      5.73        -90.03      
H           183.9       2.46        -87.35      
H           184.38      6.77        -91.68      
H           182.94      6.16        -92.36      
H           182.84005   6.45432     -90.58375   
H           184.55      4.67        -93.28      
H           185.92      4.92        -92.26      
H           185.38778   3.25297     -92.56109   
H           178.72      -0.84       -90.24      
H           180.09      -0.42       -91.32      
H           180.31312   -0.71118    -89.59419   
H           179.22      1.45        -88.1       
H           177.66      1.05        -88.92      
H           178.25321   2.69314     -88.98167   
H           187.92      6.19        -87.87      
H           174.92      0.64        -93.3       
S           185.96      3.95        -85.71      
C           187.29      5.45        -87.38      
C           187.29      5.04        -86.08      
C           172.19      0.16        -97.51      
C           172.0       0.5         -96.08      
C           173.41      0.43        -98.02      
N           171.07      0.12        -95.21      
N           172.7       1.21        -94.07      
O           171.41      0.69        -94.07      
H           175.43      1.12        -97.65      
H           173.57      0.17        -99.05      
C           174.51      0.95        -97.22      
C           173.09      1.07        -95.33      
C           174.39      1.29        -95.92      
C           166.56      -10.93      -107.88     
C           167.01      -9.67       -108.25     
S           166.54      -11.0       -106.16     
C           168.15      -5.01       -104.48     
C           167.69      -6.23       -103.9      
C           167.56      -6.33       -102.49     
C           167.85      -5.22       -101.72     
C           168.38      -4.03       -102.29     
C           168.42      -3.9        -103.67     
C           168.02      -5.21       -100.17     
C           168.49      -3.82       -99.99      
C           168.64      -3.08       -101.18     
C           168.26      -5.13       -106.03     
C           167.75      -6.58       -106.22     
C           167.44      -7.2        -104.95     
C           169.0       -3.32       -98.82      
C           169.72      -2.1        -98.91      
C           169.83      -1.34       -100.14     
C           169.16      -1.8        -101.28     
C           167.56      -7.33       -107.33     
C           167.16      -8.7        -107.3      
C           166.94      -9.3        -106.0      
C           167.04      -8.52       -104.82     
C           169.21      -6.11       -99.69      
C           166.68      -5.35       -99.43      
C           169.68      -4.85       -106.6      
C           167.14      -4.29       -106.76     
H           168.77      -2.97       -104.05     
H           167.25      -7.28       -101.98     
H           167.91      -6.95       -108.25     
H           166.85      -8.99       -103.84     
H           168.99      -3.89       -97.93      
H           169.14      -1.29       -102.24     
H           168.83      -7.18       -99.67      
H           169.35      -5.88       -98.63      
H           170.09156   -5.99533    -100.32071  
H           166.14      -4.61       -100.02     
H           166.69      -5.04       -98.42      
H           166.19091   -6.30751    -99.6091    
H           167.22      -4.39       -107.87     
H           166.18      -4.72       -106.48     
H           167.11846   -3.22029    -106.5518   
H           169.82      -3.85       -106.77     
H           169.61      -5.31       -107.6      
H           170.54379   -5.19842    -106.03382  
H           170.56      -1.88       -96.9       
H           167.16      -9.47       -109.34     
S           170.84      0.09        -99.92      
C           170.46      -1.42       -97.87      
C           171.15      -0.38       -98.28      
C           167.03      -14.43      -110.39     
C           166.0       -14.42      -109.34     
C           167.72      -13.3       -110.53     
N           165.04      -15.37      -109.0      
N           164.82      -13.61      -107.62     
O           164.37      -14.88      -107.92     
H           168.09      -11.34      -109.88     
H           168.58      -13.17      -111.21     
C           167.42      -12.16      -109.72     
C           165.76      -13.3       -108.51     
C           166.5       -12.1       -108.73     
C           177.28      -25.94      -115.94     
C           177.03      -24.81      -116.69     
S           176.29      -26.01      -114.47     
C           172.63      -20.74      -115.23     
C           172.64      -21.91      -114.43     
C           171.72      -21.99      -113.4      
C           170.83      -21.02      -113.28     
C           170.84      -19.84      -114.02     
C           171.84      -19.59      -114.92     
C           169.82      -20.97      -112.13     
C           169.22      -19.63      -112.41     
C           169.82      -18.97      -113.51     
C           173.51      -21.02      -116.46     
C           174.36      -22.21      -115.95     
C           173.76      -22.78      -114.8      
C           168.29      -19.06      -111.63     
C           168.02      -17.69      -111.74     
C           168.59      -17.03      -112.84     
C           169.41      -17.63      -113.82     
C           175.45      -22.77      -116.53     
C           175.93      -24.0       -116.11     
C           175.34      -24.59      -114.97     
C           174.29      -23.96      -114.31     
C           170.49      -20.94      -110.74     
C           168.73      -22.03      -112.3      
C           174.43      -19.74      -116.56     
C           172.84      -21.32      -117.81     
H           171.75      -18.73      -115.6      
H           171.81      -22.76      -112.65     
H           175.74      -22.41      -117.48     
H           173.71      -24.42      -113.53     
H           167.97      -19.54      -110.8      
H           169.86      -17.04      -114.61     
H           169.8       -21.29      -110.0      
H           171.44      -21.57      -110.76     
H           170.98913   -20.01799   -110.44191  
H           169.32      -23.03      -112.32     
H           167.9       -21.91      -111.56     
H           168.28448   -21.95096   -113.29165  
H           173.25      -20.7       -118.49     
H           172.91      -22.39      -118.12     
H           171.77083   -21.10898   -117.7889   
H           173.92      -18.8       -116.81     
H           175.18      -19.97      -117.31     
H           175.0162    -19.61994   -115.64892  
H           166.74      -17.23      -109.98     
H           177.67      -24.4       -117.51     
S           168.21      -15.33      -112.68     
C           167.19      -16.9       -110.84     
C           167.36      -15.55      -111.16     
C           180.12      -29.37      -116.39     
C           180.12      -28.23      -117.28     
C           179.0       -29.37      -115.58     
N           180.98      -27.89      -118.25     
N           179.53      -26.19      -117.92     
O           180.68      -26.59      -118.55     
H           177.39      -28.43      -114.7      
H           178.86      -30.25      -114.98     
C           178.13      -28.23      -115.44     
C           179.14      -27.14      -117.14     
C           178.21      -27.07      -116.14     
H           129.29      40.46       23.42       
H           180.65      -30.3       -116.55     
