612

C           100.92      46.21       5.51        
C           99.61       46.33       5.83        
S           101.99      46.14       6.9         
C           97.7        47.1        11.54       
C           99.03       46.87       11.46       
C           99.83       46.89       12.58       
C           99.26       47.09       13.85       
C           97.89       47.35       13.9        
C           97.02       47.23       12.78       
C           99.95       47.15       15.23       
C           98.78       47.59       16.09       
C           97.6        47.72       15.32       
C           97.08       47.33       10.19       
C           98.26       46.89       9.3         
C           99.46       46.74       10.04       
C           98.81       47.93       17.43       
C           97.59       48.14       18.07       
C           96.36       48.16       17.31       
C           96.39       47.93       15.9        
C           98.2        46.77       7.91        
C           99.46       46.5        7.28        
C           100.62      46.33       7.98        
C           100.67      46.55       9.33        
C           101.1       48.24       15.2        
C           100.34      45.7        15.72       
C           96.72       48.8        9.88        
C           95.88       46.4        9.96        
H           95.98       47.51       12.92       
H           100.9       46.67       12.52       
H           97.25       46.81       7.38        
H           101.64      46.38       9.84        
H           99.68       47.87       18.02       
H           95.54       47.99       15.34       
H           101.8       47.78       14.58       
H           101.52      48.27       16.21       
H           100.76581   49.22893    14.88627    
H           99.59       44.93       15.54       
H           100.36      45.69       16.77       
H           101.2892    45.35358    15.31122    
H           94.99       46.67       10.58       
H           95.6        46.57       8.95        
H           96.15045    45.34593    9.89759     
H           95.71       49.06       10.19       
H           96.6        49.03       8.82        
H           97.43143    49.52552    10.27446    
H           98.12       48.63       20.15       
H           98.83       46.55       5.14        
S           94.99       48.47       18.39       
C           97.33       48.49       19.39       
C           96.03       48.7        19.74       
C           102.79      46.27       1.63        
C           101.4       45.86       1.8         
C           103.37      46.82       2.71        
N           100.58      45.32       0.89        
N           99.6        45.45       2.91        
O           99.47       45.07       1.6         
H           103.32      47.21       4.8         
H           104.42      47.19       2.69        
C           102.77      46.8        4.01        
C           100.82      45.93       3.07        
C           101.53      46.26       4.2         
C           112.91      45.52       -11.23      
C           113.19      46.3        -10.08      
S           111.21      45.27       -11.25      
C           109.15      47.56       -5.78       
C           108.63      46.84       -6.93       
C           107.27      46.36       -6.98       
C           106.52      46.37       -5.83       
C           107.04      47.05       -4.61       
C           108.32      47.7        -4.65       
C           105.0       46.2        -5.64       
C           104.96      46.3        -4.09       
C           106.15      46.74       -3.52       
C           110.66      47.87       -5.96       
C           110.89      47.22       -7.3        
C           109.73      46.68       -7.88       
C           103.83      46.06       -3.29       
C           103.97      46.31       -1.88       
C           105.14      46.75       -1.41       
C           106.32      46.85       -2.13       
C           112.09      47.23       -8.01       
C           112.09      46.56       -9.24       
C           110.87      46.03       -9.73       
C           109.66      46.05       -9.09       
C           104.71      44.77       -6.0        
C           104.16      47.35       -6.39       
C           111.43      47.09       -4.83       
C           111.06      49.39       -6.02       
H           108.71      48.07       -3.69       
H           106.91      45.93       -7.89       
H           113.03      47.61       -7.56       
H           108.73      45.61       -9.52       
H           102.91      45.72       -3.69       
H           107.26      47.16       -1.68       
H           104.87      44.59       -7.06       
H           103.67      44.53       -5.74       
H           105.15988   43.96456    -5.4195     
H           104.52      48.39       -6.16       
H           103.1       47.27       -6.08       
H           104.09486   47.20525    -7.46838    
H           112.07      49.32       -5.91       
H           110.89      49.96       -6.94       
H           110.65083   49.9191     -5.15934    
H           112.4       47.52       -4.61       
H           110.88      47.23       -3.87       
H           111.49033   46.03417    -5.09396    
H           101.85      45.9        -1.13       
H           114.18      46.54       -9.72       
S           105.14      46.74       0.3         
C           102.94      46.09       -0.88       
C           103.48      46.35       0.36        
C           115.49      42.81       -13.6       
C           115.97      43.55       -12.57      
C           114.21      43.22       -13.99      
N           117.23      43.66       -12.06      
N           115.84      44.89       -10.81      
O           117.08      44.34       -10.9       
H           112.35      44.12       -13.64      
H           113.85      42.66       -14.86      
C           113.35      44.07       -13.22      
C           115.13      44.43       -11.81      
C           113.71      44.68       -12.08      
C           124.9       35.33       -24.69      
C           123.64      35.65       -24.97      
S           125.26      35.19       -23.02      
C           119.99      37.84       -20.65      
C           121.3       37.42       -20.22      
C           121.63      37.57       -18.92      
C           120.82      38.26       -18.02      
C           119.62      38.75       -18.52      
C           119.2       38.6        -19.85      
C           120.92      38.49       -16.53      
C           119.62      39.18       -16.25      
C           118.9       39.36       -17.4       
C           119.74      37.51       -22.1       
C           121.14      37.06       -22.48      
C           121.97      36.83       -21.32      
C           119.06      39.54       -15.04      
C           117.89      40.34       -14.99      
C           117.21      40.52       -16.19      
C           117.69      40.05       -17.41      
C           121.61      36.59       -23.7       
C           122.9       36.0        -23.8       
C           123.68      35.76       -22.59      
C           123.15      36.13       -21.35      
C           122.04      39.48       -16.1       
C           121.02      37.14       -15.68      
C           119.41      38.83       -22.87      
C           118.74      36.34       -22.44      
H           118.19      38.98       -20.22      
H           122.66      37.28       -18.63      
H           121.11      36.61       -24.6       
H           123.79      36.06       -20.5       
H           119.5       39.24       -14.14      
H           117.16      40.13       -18.31      
H           122.31      39.35       -15.05      
H           122.96      39.14       -16.68      
H           121.86017   40.53738    -16.29421   
H           121.88      36.49       -15.84      
H           121.19      37.34       -14.59      
H           120.10162   36.55307    -15.69381   
H           118.63      36.3        -23.48      
H           119.09      35.35       -22.15      
H           117.74864   36.38102    -21.98876   
H           119.26      38.71       -23.95      
H           118.41      39.26       -22.7       
H           120.19868   39.57566    -22.76962   
H           117.69      41.22       -12.93      
H           123.16      35.81       -25.97      
S           115.74      41.45       -16.0       
C           117.27      41.11       -13.89      
C           116.21      41.74       -14.31      
C           128.03      34.9        -27.75      
C           128.33      34.77       -26.38      
C           126.65      35.1        -28.01      
N           129.45      34.55       -25.71      
N           127.98      34.77       -24.17      
O           129.27      34.53       -24.37      
H           124.67      35.35       -27.36      
H           126.29      35.03       -29.08      
C           125.66      35.26       -26.99      
C           127.34      34.95       -25.32      
C           125.95      35.09       -25.67      
C           135.79      28.96       -41.18      
C           134.8       29.83       -41.34      
S           135.97      28.56       -39.48      
C           131.89      32.42       -36.54      
C           132.99      31.52       -36.19      
C           133.29      31.09       -34.91      
C           132.76      31.86       -33.88      
C           131.62      32.76       -34.16      
C           131.18      33.01       -35.49      
C           132.95      31.71       -32.34      
C           132.07      32.78       -31.79      
C           131.19      33.32       -32.84      
C           131.74      32.62       -38.04      
C           132.84      31.64       -38.55      
C           133.5       30.98       -37.46      
C           131.85      33.04       -30.42      
C           130.68      33.74       -30.17      
C           129.83      34.22       -31.21      
C           130.07      34.08       -32.51      
C           133.14      31.29       -39.88      
C           134.12      30.3        -40.16      
C           134.74      29.68       -39.01      
C           134.45      29.93       -37.67      
C           134.38      32.04       -31.94      
C           132.55      30.3        -31.82      
C           132.1       34.06       -38.42      
C           130.38      32.16       -38.69      
H           130.31      33.71       -35.64      
H           134.03      30.31       -34.75      
H           132.66      31.83       -40.74      
H           134.99      29.41       -36.85      
H           132.45      32.49       -29.73      
H           129.33      34.55       -33.25      
H           134.64      31.7        -30.88      
H           135.02      31.4        -32.62      
H           134.68603   33.0506     -32.21044   
H           133.28      29.53       -32.14      
H           132.56      30.14       -30.76      
H           131.55512   29.97081    -32.11993   
H           130.3       32.62       -39.65      
H           130.25      31.08       -38.84      
H           129.50809   32.52449    -38.14684   
H           131.23      34.66       -38.13      
H           132.07      34.12       -39.51      
H           132.9994    34.49542    -37.98458   
H           130.67      33.73       -27.92      
H           134.56      30.19       -42.37      
S           128.36      34.97       -30.51      
C           130.15      34.01       -28.82      
C           128.91      34.57       -28.86      
C           138.63      26.87       -43.83      
C           138.01      28.09       -44.22      
C           138.2       26.4        -42.64      
N           138.17      28.85       -45.34      
N           136.57      29.75       -44.11      
O           137.28      29.81       -45.28      
H           137.21      26.65       -40.84      
H           138.67      25.56       -42.17      
C           137.29      27.11       -41.79      
C           137.03      28.72       -43.45      
C           136.68      28.27       -42.1       
C           151.2       20.11       -51.83      
C           151.06      21.52       -52.04      
S           150.41      19.59       -50.38      
C           147.11      24.53       -48.51      
C           147.3       23.17       -48.21      
C           146.53      22.42       -47.24      
C           145.46      23.02       -46.67      
C           145.24      24.38       -47.0       
C           146.12      25.15       -47.76      
C           144.55      22.47       -45.66      
C           143.46      23.53       -45.7       
C           143.93      24.71       -46.39      
C           147.83      24.89       -49.81      
C           148.83      23.69       -49.92      
C           148.35      22.66       -49.03      
C           142.29      23.58       -44.96      
C           141.52      24.78       -44.99      
C           142.04      25.93       -45.64      
C           143.21      25.88       -46.4       
C           149.71      23.38       -50.88      
C           150.2       22.07       -51.0       
C           149.72      21.12       -50.01      
C           148.82      21.38       -49.01      
C           145.12      22.33       -44.18      
C           143.88      21.14       -46.15      
C           148.42      26.28       -49.69      
C           146.94      24.79       -51.01      
H           146.01      26.22       -47.72      
H           146.86      21.49       -46.85      
H           149.98      24.09       -51.61      
H           148.52      20.69       -48.27      
H           141.9       22.76       -44.39      
H           143.6       26.69       -47.02      
H           145.68      21.36       -44.07      
H           144.27      22.14       -43.51      
H           145.69327   23.19689    -43.85142   
H           144.63      20.33       -46.28      
H           143.08      20.84       -45.52      
H           143.40987   21.16849    -47.13299   
H           147.34      25.27       -51.89      
H           146.83      23.76       -51.21      
H           145.94045   25.18698    -50.83278   
H           147.62      27.1        -49.92      
H           148.56      26.6        -48.7       
H           149.40385   26.37201    -50.15007   
H           139.57      24.29       -43.93      
H           151.45      22.07       -52.87      
S           141.01      27.33       -45.34      
C           140.19      25.03       -44.47      
C           139.75      26.33       -44.57      
C           153.47      17.09       -54.03      
C           153.81      18.41       -53.96      
C           152.24      16.84       -53.56      
N           154.9       18.98       -54.5       
N           153.59      20.59       -53.46      
O           154.8       20.26       -54.08      
H           150.53      17.5        -52.37      
H           151.82      15.82       -53.52      
C           151.48      17.84       -52.82      
C           153.04      19.43       -53.33      
C           151.88      19.12       -52.63      
C           162.29      5.12        -61.54      
C           161.0       4.85        -61.05      
S           162.9       6.5         -60.57      
C           157.81      9.08        -57.99      
C           159.17      9.37        -58.1       
C           159.65      10.62       -57.8       
C           158.89      11.63       -57.33      
C           157.53      11.33       -57.01      
C           157.01      10.06       -57.37      
C           159.15      13.1        -57.02      
C           157.91      13.49       -56.33      
C           156.92      12.41       -56.33      
C           157.47      7.66        -58.51      
C           158.85      7.22        -58.95      
C           159.76      8.28        -58.73      
C           157.56      14.7        -55.83      
C           156.27      14.89       -55.36      
C           155.3       13.86       -55.39      
C           155.57      12.6        -55.88      
C           159.18      6.03        -59.6       
C           160.44      5.92        -60.18      
C           161.39      6.92        -59.83      
C           161.04      8.1         -59.14      
C           159.32      13.84       -58.41      
C           160.36      13.33       -56.07      
C           156.5       7.88        -59.71      
C           156.99      6.61        -57.4       
H           156.0       9.81        -57.17      
H           160.63      10.85       -58.09      
H           158.42      5.27        -59.85      
H           161.73      8.95        -58.94      
H           158.24      15.51       -55.91      
H           154.85      11.8        -55.84      
H           160.23      14.46       -58.44      
H           159.61      13.08       -59.21      
H           158.42015   14.34392    -58.76274   
H           161.23      12.85       -56.52      
H           160.62      14.3        -55.9       
H           160.16109   12.76756    -55.15775   
H           157.04      5.62        -57.86      
H           157.78      6.68        -56.63      
H           156.03074   6.81305     -56.92387   
H           156.38      6.93        -60.25      
H           155.61      8.27        -59.36      
H           156.8887    8.55472     -60.47273   
H           156.18      17.01       -54.69      
H           160.41      4.02        -61.51      
S           153.74      14.55       -54.93      
C           155.66      16.11       -54.84      
C           154.39      16.1        -54.6       
C           164.48      3.91        -65.25      
C           163.29      3.23        -64.84      
C           164.87      4.99        -64.47      
N           162.62      2.2         -65.38      
N           161.7       2.73        -63.35      
O           161.64      1.96        -64.43      
H           164.82      5.95        -62.49      
H           165.82      5.58        -64.74      
C           164.25      5.23        -63.15      
C           162.68      3.58        -63.57      
C           163.05      4.68        -62.69      
C           174.02      -0.67       -77.8       
C           174.3       0.56        -77.17      
S           172.64      -1.46       -77.25      
C           171.11      2.05        -72.3       
C           170.47      1.19        -73.23      
C           169.23      0.49        -72.95      
C           168.57      0.93        -71.82      
C           169.11      1.86        -70.97      
C           170.35      2.55        -71.19      
C           167.17      0.44        -71.36      
C           167.02      1.4         -70.13      
C           168.17      2.25        -69.95      
C           172.35      2.79        -73.01      
C           172.46      1.9         -74.24      
C           171.45      0.91        -74.28      
C           165.83      1.65        -69.39      
C           165.87      2.54        -68.37      
C           167.04      3.34        -68.24      
C           168.23      3.26        -68.94      
C           173.47      1.88        -75.18      
C           173.42      0.8         -76.11      
C           172.37      -0.14       -76.11      
C           171.4       -0.12       -75.16      
C           167.18      -1.08       -70.99      
C           166.09      0.85        -72.36      
C           173.66      2.61        -72.14      
C           172.05      4.29        -73.21      
H           170.66      3.34        -70.46      
H           168.75      -0.19       -73.66      
H           174.16      2.66        -75.3       
H           170.61      -0.9        -75.0       
H           164.92      1.07        -69.51      
H           169.02      3.93        -68.73      
H           166.8       -1.56       -71.87      
H           168.16      -1.33       -70.91      
H           166.6632    -1.36793    -70.07452   
H           166.35      0.24        -73.17      
H           165.09      0.48        -72.06      
H           166.07557   1.91818     -72.57652   
H           172.29      4.73        -72.21      
H           172.68      4.68        -73.95      
H           171.01975   4.61498     -73.3552    
H           173.61      3.08        -71.18      
H           174.29      3.26        -72.7       
H           174.0362    1.58787     -72.09741   
H           163.9       2.29        -67.54      
H           175.14      1.2         -77.44      
S           166.76      4.22        -66.78      
C           164.88      2.68        -67.4       
C           165.18      3.58        -66.45      
C           176.42      -2.7        -81.03      
C           176.61      -1.32       -80.68      
C           175.4       -3.25       -80.25      
N           177.49      -0.48       -81.2       
N           176.13      0.68        -79.73      
O           177.07      0.78        -80.72      
H           173.85      -3.08       -78.7       
H           175.18      -4.31       -80.38      
C           174.6       -2.53       -79.31      
C           175.8       -0.61       -79.74      
C           174.79      -1.28       -78.92      
C           183.36      -14.66      -90.34      
C           182.17      -14.69      -89.64      
S           184.33      -13.31      -89.78      
C           180.06      -10.26      -86.04      
C           181.42      -10.06      -86.48      
C           182.05      -8.85       -86.1       
C           181.26      -7.96       -85.26      
C           179.91      -8.21       -84.95      
C           179.38      -9.43       -85.2       
C           181.75      -6.58       -84.71      
C           180.49      -6.14       -83.97      
C           179.44      -7.11       -84.2       
C           179.55      -11.52      -86.7       
C           180.72      -12.1       -87.44      
C           181.85      -11.16      -87.33      
C           180.3       -4.98       -83.23      
C           178.97      -4.65       -82.88      
C           177.96      -5.65       -82.99      
C           178.19      -6.87       -83.6       
C           180.83      -13.3       -88.03      
C           181.99      -13.55      -88.8       
C           183.1       -12.7       -88.69      
C           183.12      -11.53      -87.86      
C           182.21      -5.68       -85.85      
C           182.8       -6.66       -83.66      
C           178.4       -11.38      -87.76      
C           179.07      -12.47      -85.6       
H           178.32      -9.67       -84.94      
H           183.07      -8.71       -86.4       
H           179.93      -13.87      -88.13      
H           184.04      -10.89      -87.75      
H           181.07      -4.27       -83.09      
H           177.32      -7.52       -83.78      
H           183.1       -5.09       -85.53      
H           182.61      -6.19       -86.71      
H           181.46576   -4.96358    -86.19778   
H           183.65      -7.14       -84.17      
H           183.0       -5.68       -83.34      
H           182.56436   -7.3455     -82.84596   
H           178.25      -12.07      -85.06      
H           178.85      -13.43      -86.05      
H           179.84702   -12.68      -84.86499   
H           177.5       -11.14      -87.15      
H           178.31      -12.37      -88.25      
H           178.55177   -10.65565   -88.56024   
H           179.13      -2.54       -82.06      
H           181.35      -15.35      -89.89      
S           176.5       -4.98       -82.46      
C           178.53      -3.44       -82.25      
C           177.25      -3.56       -81.79      
C           185.06      -16.56      -93.94      
C           183.63      -16.59      -93.7       
C           185.74      -16.05      -92.91      
N           182.7       -16.98      -94.51      
N           181.79      -16.21      -92.53      
O           181.61      -16.79      -93.76      
H           185.9       -14.97      -91.1       
H           186.79      -16.05      -93.02      
C           185.2       -15.41      -91.76      
C           183.07      -16.06      -92.49      
C           183.89      -15.4       -91.5       
C           193.37      -21.77      -107.2      
C           194.0       -21.22      -106.1      
S           191.64      -21.4       -107.13     
C           190.87      -18.9       -101.43     
C           190.09      -19.15      -102.55     
C           188.7       -18.84      -102.63     
C           188.1       -18.36      -101.48     
C           188.89      -18.21      -100.31     
C           190.22      -18.43      -100.29     
C           186.67      -17.85      -101.23     
C           186.67      -17.78      -99.7       
C           188.0       -17.74      -99.24      
C           192.34      -19.06      -101.72     
C           192.39      -19.69      -103.06     
C           191.06      -19.82      -103.53     
C           185.63      -17.55      -98.83      
C           185.97      -17.3       -97.46      
C           187.34      -17.28      -97.07      
C           188.34      -17.47      -97.93      
C           193.45      -20.17      -103.83     
C           193.09      -20.64      -105.11     
C           191.74      -20.8       -105.55     
C           190.69      -20.42      -104.73     
C           185.61      -18.85      -101.73     
C           186.38      -16.44      -101.75     
C           193.12      -19.82      -100.62     
C           193.02      -17.68      -102.01     
H           190.79      -18.29      -99.4       
H           188.1       -18.86      -103.53     
H           194.43      -20.21      -103.54     
H           189.68      -20.43      -105.01     
H           184.62      -17.51      -99.19      
H           189.37      -17.56      -97.61      
H           185.46      -18.76      -102.74     
H           184.58      -18.6       -101.49     
H           185.87694   -19.88263   -101.50521  
H           186.92      -15.75      -101.04     
H           185.29      -16.32      -101.76     
H           186.71935   -16.29153   -102.77513  
H           194.1       -17.82      -102.14     
H           192.55      -17.22      -102.95     
H           192.86204   -16.93827   -101.22706  
H           193.25      -19.14      -99.71      
H           194.18      -20.02      -101.0      
H           192.6166    -20.77086   -100.44521  
H           184.05      -16.9       -96.48      
H           195.09      -21.26      -105.94     
S           187.48      -16.92      -95.32      
C           185.16      -16.95      -96.39      
C           185.74      -16.81      -95.19      
C           195.18      -24.8       -109.77     
C           194.06      -24.04      -110.26     
C           195.7       -24.34      -108.6      
N           193.3       -24.25      -111.27     
N           192.49      -22.48      -110.13     
O           192.27      -23.34      -111.21     
H           195.49      -23.21      -106.77     
H           196.63      -24.77      -108.2      
C           195.01      -23.42      -107.74     
C           193.45      -23.02      -109.45     
C           193.96      -22.69      -108.18     
C           201.05      -38.84      -116.16     
C           201.08      -38.57      -114.81     
S           200.68      -37.41      -117.08     
C           199.32      -33.26      -112.57     
C           199.43      -33.28      -114.01     
C           198.97      -32.2       -114.79     
C           198.48      -31.05      -114.15     
C           198.28      -31.13      -112.73     
C           198.74      -32.19      -111.95     
C           198.05      -29.72      -114.76     
C           197.49      -29.05      -113.48     
C           197.73      -29.84      -112.31     
C           200.12      -34.4       -111.93     
C           200.26      -35.3       -113.15     
C           199.98      -34.56      -114.39     
C           197.0       -27.85      -113.42     
C           196.62      -27.37      -112.14     
C           196.81      -28.16      -110.99     
C           197.4       -29.44      -111.02     
C           200.68      -36.6       -113.22     
C           200.74      -37.18      -114.48     
C           200.49      -36.45      -115.69     
C           200.11      -35.13      -115.64     
C           196.98      -30.04      -115.81     
C           199.27      -29.1       -115.45     
C           199.13      -35.07      -110.96     
C           201.38      -34.02      -111.18     
H           198.52      -32.26      -110.86     
H           198.95      -32.2       -115.85     
H           200.8       -37.19      -112.35     
H           199.9       -34.61      -116.51     
H           196.82      -27.3       -114.28     
H           197.53      -30.01      -110.13     
H           197.5       -30.55      -116.61     
H           196.51      -30.81      -115.29     
H           196.37872   -29.22398   -116.21085  
H           199.5       -29.79      -116.27     
H           199.02      -28.1       -115.8      
H           200.1276    -28.97347   -114.78923  
H           201.11      -34.07      -110.11     
H           202.15      -34.71      -111.33     
H           201.69639   -33.01931   -111.47432  
H           198.87      -34.24      -110.33     
H           199.69      -35.77      -110.41     
H           198.26486   -35.5242    -111.44304  
H           195.73      -25.35      -112.51     
H           201.13      -39.34      -114.02     
S           196.15      -27.43      -109.54     
C           195.94      -26.11      -111.76     
C           195.68      -25.97      -110.44     
C           201.83      -42.91      -117.74     
C           202.66      -42.32      -116.66     
C           200.96      -42.01      -118.35     
N           203.55      -42.88      -115.95     
N           203.34      -40.75      -115.14     
O           204.06      -41.93      -115.18     
H           200.1       -39.99      -118.49     
H           200.46      -42.28      -119.26     
C           200.7       -40.65      -117.87     
C           202.41      -40.99      -116.13     
C           201.36      -40.13      -116.75     
H           95.59       48.41       20.73       
H           202.14      -43.91      -118.14     
