612

C           112.56      16.9        31.76       
C           112.57      15.59       31.99       
S           114.13      17.59       32.02       
C           117.44      12.52       33.98       
C           117.53      13.93       33.93       
C           118.67      14.6        34.42       
C           119.64      13.79       35.07       
C           119.49      12.43       35.15       
C           118.43      11.75       34.54       
C           121.0       14.27       35.62       
C           121.38      13.0        36.41       
C           120.6       11.94       36.0        
C           116.06      12.11       33.43       
C           115.45      13.51       33.13       
C           116.41      14.51       33.27       
C           122.38      12.92       37.35       
C           122.8       11.66       37.81       
C           122.06      10.58       37.31       
C           120.98      10.73       36.45       
C           114.22      13.73       32.62       
C           113.85      15.09       32.4        
C           114.86      16.1        32.5        
C           116.14      15.82       32.92       
C           120.88      15.46       36.53       
C           122.06      14.51       34.52       
C           115.17      11.38       34.5        
C           116.24      11.19       32.22       
H           118.36      10.72       34.65       
H           118.89      15.67       34.34       
H           113.41      13.04       32.62       
H           116.89      16.6        32.95       
H           122.92      13.89       37.57       
H           120.41      9.87        36.13       
H           120.33      16.28       35.95       
H           121.8       15.96       36.88       
H           120.28698   15.26233    37.42294    
H           122.46      13.59       34.16       
H           122.89      14.94       35.05       
H           121.71276   15.12652    33.69089    
H           116.06      10.17       32.41       
H           115.53      11.45       31.39       
H           117.22176   11.27727    31.75457    
H           115.83      10.54       34.85       
H           114.27      10.92       34.12       
H           114.93211   11.97834    35.37949    
H           124.59      12.1        39.04       
H           111.73      14.99       31.87       
S           122.66      9.08        38.1        
C           123.89      11.4        38.67       
C           123.95      10.03       38.94       
C           109.44      19.5        29.93       
C           109.27      18.1        30.05       
C           110.68      19.92       30.29       
N           108.25      17.4        29.8        
N           109.77      16.09       30.67       
O           108.51      16.12       30.23       
H           112.66      19.57       31.21       
H           110.92      20.96       30.08       
C           111.73      19.11       30.87       
C           110.26      17.26       30.66       
C           111.53      17.7        31.16       
C           105.71      29.53       17.94       
C           105.72      28.17       17.79       
S           105.9       30.0        19.64       
C           105.92      24.26       22.4        
C           105.8       25.64       22.76       
C           105.91      26.03       24.13       
C           106.15      25.07       25.07       
C           106.14      23.69       24.75       
C           106.03      23.31       23.42       
C           106.4       25.3        26.54       
C           106.5       23.84       27.05       
C           106.35      22.96       25.95       
C           105.87      24.08       20.88       
C           105.71      25.54       20.46       
C           105.8       26.42       21.53       
C           106.92      23.41       28.24       
C           107.36      22.11       28.28       
C           107.23      21.22       27.21       
C           106.55      21.63       26.07       
C           105.76      26.04       19.15       
C           105.76      27.42       18.97       
C           105.83      28.31       20.13       
C           105.77      27.75       21.41       
C           105.27      26.11       27.17       
C           107.82      25.87       26.8        
C           104.67      23.14       20.57       
C           107.22      23.63       20.26       
H           106.17      22.27       23.11       
H           105.91      27.1        24.35       
H           105.84      25.41       18.24       
H           105.76      28.47       22.28       
H           107.03      24.06       29.09       
H           106.4       20.91       25.27       
H           105.23      27.2        26.91       
H           105.38      26.0        28.24       
H           104.30331   25.6732     26.91938    
H           108.52      25.07       26.79       
H           107.98      26.21       27.78       
H           108.17472   26.62473    26.0981     
H           107.17      23.71       19.19       
H           108.05      24.2        20.63       
H           107.47433   22.59149    20.47194    
H           104.52      22.7        19.6        
H           104.6       22.22       21.23       
H           103.69858   23.63265    20.61163    
H           108.42      22.04       30.23       
H           105.54      27.82       16.82       
S           107.95      19.63       27.51       
C           108.15      21.49       29.31       
C           108.52      20.25       29.07       
C           106.14      32.75       14.9        
C           106.62      31.36       14.63       
C           105.46      32.89       16.08       
N           107.34      30.78       13.68       
N           107.18      29.18       15.23       
O           107.64      29.5        13.98       
H           104.71      31.97       17.89       
H           104.92      33.83       16.3        
C           105.32      31.81       17.0        
C           106.54      30.33       15.64       
C           105.88      30.56       16.9        
C           112.33      47.12       9.67        
C           111.82      46.95       10.92       
S           112.49      45.57       8.81        
C           109.83      41.55       12.74       
C           110.3       41.62       11.41       
C           110.2       40.41       10.54       
C           109.56      39.28       11.08       
C           109.13      39.27       12.41       
C           109.27      40.4        13.26       
C           109.32      37.93       10.4        
C           108.76      37.08       11.56       
C           108.38      37.98       12.63       
C           109.77      42.94       13.37       
C           110.56      43.7        12.39       
C           110.85      42.9        11.25       
C           108.39      35.74       11.53       
C           107.6       35.31       12.66       
C           107.17      36.27       13.54       
C           107.47      37.6        13.54       
C           110.85      45.0        12.41       
C           111.49      45.56       11.29       
C           111.8       44.74       10.14       
C           111.58      43.4        10.15       
C           110.76      37.39       10.03       
C           108.42      38.33       9.24        
C           110.53      42.97       14.74       
C           108.38      43.63       13.39       
H           108.96      40.29       14.27       
H           110.47      40.42       9.5         
H           110.45      45.59       13.19       
H           111.8       42.76       9.32        
H           108.79      35.04       10.86       
H           107.07      38.29       14.27       
H           111.32      38.07       9.37        
H           111.41      37.47       10.96       
H           110.82301   36.3749     9.63796     
H           108.42      39.38       9.0         
H           108.77      37.72       8.43        
H           107.37324   38.07709    9.40861     
H           108.45      44.61       13.82       
H           108.01      43.74       12.35       
H           107.72852   43.12886    14.10591    
H           110.58      44.01       15.03       
H           109.86      42.46       15.44       
H           111.49847   42.475      14.66826    
H           107.71      33.11       12.57       
H           111.59      47.8        11.57       
S           106.16      35.52       14.78       
C           107.22      33.94       13.0        
C           106.41      33.91       14.1        
C           113.56      50.99       7.89        
C           112.33      50.82       8.67        
C           114.1       49.79       7.57        
N           111.48      51.66       9.18        
N           110.8       49.72       9.91        
O           110.36      50.98       9.66        
H           113.99      47.58       7.77        
H           115.01      49.75       7.01        
C           113.58      48.56       8.01        
C           111.87      49.54       9.14        
C           112.54      48.37       8.9         
C           120.28      66.11       6.66        
C           121.01      65.01       6.21        
S           118.61      65.64       6.91        
C           118.83      59.28       6.87        
C           117.95      60.34       7.09        
C           116.69      60.06       7.5         
C           116.2       58.76       7.53        
C           117.07      57.75       7.16        
C           118.45      57.93       6.97        
C           114.76      58.38       7.67        
C           114.99      56.89       7.34        
C           116.37      56.51       7.14        
C           120.21      59.87       6.63        
C           120.02      61.39       6.52        
C           118.67      61.57       6.9         
C           114.03      55.9        7.46        
C           114.38      54.56       7.3         
C           115.73      54.22       7.02        
C           116.74      55.17       6.91        
C           120.84      62.46       6.25        
C           120.33      63.79       6.41        
C           118.97      63.94       6.8         
C           118.16      62.84       7.07        
C           113.84      58.91       6.55        
C           114.12      58.58       9.04        
C           120.86      59.48       5.26        
C           121.1       59.58       7.82        
H           119.15      57.18       6.6         
H           115.97      60.87       7.69        
H           121.77      62.32       5.74        
H           117.08      63.02       7.29        
H           112.98      56.1        7.8         
H           117.76      54.89       6.73        
H           112.84      58.99       6.86        
H           114.2       59.87       6.28        
H           113.97766   58.34561    5.62771     
H           113.41      59.43       8.96        
H           113.44      57.79       9.21        
H           114.77572   58.65756    9.90724     
H           120.74      59.98       8.8         
H           120.94      58.48       8.05        
H           122.16307   59.81789    7.78283     
H           121.07      58.36       5.3         
H           121.76      60.0        5.11        
H           120.26404   59.74891    4.38786     
H           112.6       53.57       8.05        
H           121.95      65.13       5.78        
S           115.8       52.48       6.85        
C           113.55      53.44       7.61        
C           114.09      52.27       7.44        
C           120.97      70.45       6.81        
C           121.76      69.64       5.96        
C           119.97      69.8        7.47        
N           122.81      69.99       5.28        
N           122.57      67.68       5.18        
O           123.29      68.77       4.76        
H           118.95      68.01       7.98        
H           119.34      70.39       8.23        
C           119.74      68.4        7.38        
C           121.62      68.2        5.88        
C           120.5       67.53       6.57        
C           128.58      83.65       13.2        
C           127.8       82.84       13.99       
S           128.28      83.22       11.49       
C           124.27      78.34       11.8        
C           125.16      78.98       10.96       
C           125.4       78.56       9.64        
C           124.62      77.55       9.11        
C           123.7       76.9        9.96        
C           123.53      77.29       11.28       
C           124.48      77.1        7.62        
C           123.46      75.97       7.78        
C           123.01      75.89       9.14        
C           124.47      78.91       13.19       
C           125.54      79.96       12.98       
C           125.85      80.06       11.6        
C           123.22      74.97       6.91        
C           122.45      73.9        7.27        
C           121.84      73.9        8.49        
C           122.08      74.88       9.41        
C           126.04      80.95       13.85       
C           126.95      81.87       13.33       
C           127.18      81.95       11.94       
C           126.62      81.08       11.02       
C           125.81      76.63       7.07        
C           123.8       78.15       6.68        
C           125.03      77.81       14.15       
C           123.2       79.54       13.69       
H           122.82      76.76       11.96       
H           126.04      79.07       9.01        
H           125.89      80.98       14.96       
H           126.66      81.23       9.96        
H           123.7       74.96       5.96        
H           121.57      75.03       10.37       
H           126.53      77.45       7.0         
H           125.61      76.45       5.99        
H           126.20975   75.80195    7.65535     
H           124.65      78.69       6.37        
H           123.29      77.64       5.82        
H           123.2452    78.90144    7.24182     
H           122.56      78.72       13.98       
H           123.36      80.12       14.6        
H           122.7247    80.13773    12.91224    
H           124.65      77.98       15.16       
H           124.62      76.89       13.89       
H           126.10945   77.67327    14.08523    
H           122.49      72.55       5.53        
H           127.78      82.87       15.05       
S           120.86      72.5        8.67        
C           122.17      72.74       6.53        
C           121.32      71.87       7.11        
C           132.06      86.13       14.22       
C           130.89      86.03       15.13       
C           131.89      85.56       13.03       
N           130.63      86.47       16.3        
N           129.0       85.0        15.89       
O           129.54      85.8        16.79       
H           130.69      84.53       11.62       
H           132.51      85.83       12.14       
C           130.71      84.86       12.64       
C           129.8       85.09       14.83       
C           129.61      84.62       13.47       
C           145.9       94.57       17.51       
C           145.82      93.69       16.49       
S           144.24      95.09       18.04       
C           140.77      90.67       15.2        
C           140.57      91.81       16.08       
C           139.3       92.1        16.68       
C           138.23      91.26       16.35       
C           138.43      90.14       15.53       
C           139.67      89.89       14.86       
C           136.78      91.27       16.89       
C           136.25      90.04       16.17       
C           137.2       89.34       15.42       
C           142.11      90.87       14.46       
C           142.75      91.96       15.2        
C           141.78      92.61       16.09       
C           134.99      89.57       16.33       
C           134.56      88.59       15.46       
C           135.52      87.79       14.75       
C           136.86      88.2        14.67       
C           144.06      92.33       15.22       
C           144.47      93.29       16.17       
C           143.44      93.97       16.93       
C           142.1       93.68       16.94       
C           135.99      92.5        16.41       
C           136.92      91.21       18.46       
C           141.96      91.17       12.95       
C           143.11      89.61       14.58       
H           139.79      89.08       14.12       
H           139.06      92.97       17.26       
H           144.86      91.83       14.65       
H           141.44      94.04       17.74       
H           134.26      90.18       16.85       
H           137.66      87.68       14.11       
H           134.95      92.34       16.63       
H           136.29      93.33       17.01       
H           136.17062   92.76398    15.36799    
H           137.46      92.09       18.72       
H           136.01      91.3        19.01       
H           137.37667   90.32476    18.90262    
H           142.65      88.77       14.05       
H           144.07      89.93       14.11       
H           143.38593   89.31284    15.59176    
H           142.89      90.78       12.57       
H           141.26      90.51       12.4        
H           141.77781   92.21215    12.68764    
H           132.37      88.51       15.79       
H           146.62      93.2        16.08       
S           134.74      86.62       13.78       
C           133.23      88.09       15.34       
C           133.19      87.03       14.45       
C           149.06      94.67       20.62       
C           148.51      95.84       19.99       
C           148.5       93.5        20.16       
N           148.82      97.13       20.13       
N           147.19      96.97       18.52       
O           147.92      97.78       19.35       
H           147.32      92.45       18.55       
H           148.77      92.54       20.49       
C           147.52      93.43       19.08       
C           147.53      95.79       18.91       
C           147.03      94.57       18.42       
C           162.28      91.0        29.51       
C           161.26      90.16       29.41       
S           162.12      92.49       28.58       
C           156.57      91.62       25.86       
C           157.33      92.72       26.24       
C           157.02      94.02       25.96       
C           155.94      94.2        25.21       
C           155.22      93.12       24.61       
C           155.48      91.84       25.02       
C           155.26      95.54       24.87       
C           154.09      95.04       24.01       
C           154.06      93.63       23.94       
C           156.94      90.26       26.49       
C           158.23      90.74       27.2        
C           158.49      92.15       26.96       
C           153.13      95.77       23.3        
C           152.02      95.11       22.73       
C           151.87      93.68       23.0        
C           152.9       92.94       23.6        
C           159.12      90.04       27.97       
C           160.27      90.66       28.54       
C           160.52      91.96       28.07       
C           159.65      92.75       27.31       
C           156.31      96.46       24.13       
C           154.88      96.29       26.14       
C           157.46      89.15       25.55       
C           155.92      89.62       27.49       
H           154.81      91.0        24.78       
H           157.55      94.85       26.33       
H           158.9       89.06       28.36       
H           159.87      93.77       27.04       
H           153.13      96.82       23.26       
H           152.85      91.82       23.7        
H           156.37      97.48       24.55       
H           157.31      95.99       24.38       
H           156.26843   96.40457    23.0422     
H           155.76      96.18       26.79       
H           154.62      97.36       26.04       
H           154.10793   95.73551    26.67343    
H           156.44      88.64       27.81       
H           155.85      90.32       28.33       
H           154.93388   89.47102    27.05015    
H           156.6       88.83       24.99       
H           157.96      88.34       26.01       
H           158.19171   89.58468    24.869      
H           150.66      96.57       21.8        
H           161.39      89.2        29.87       
S           150.37      93.02       22.37       
C           150.86      95.56       22.06       
C           150.05      94.58       21.59       
C           166.47      90.41       30.98       
C           165.4       89.55       31.36       
C           166.08      91.52       30.3        
N           165.47      88.5        32.08       
N           163.31      88.77       31.38       
O           164.18      88.02       32.19       
H           164.48      92.54       29.18       
H           166.71      92.31       30.05       
C           164.68      91.68       29.81       
C           164.05      89.74       30.96       
C           163.65      90.83       30.06       
C           182.48      85.88       30.14       
C           181.94      86.95       29.41       
S           181.25      85.36       31.25       
C           176.2       89.12       30.25       
C           176.55      88.06       31.17       
C           175.71      87.61       32.16       
C           174.44      88.15       32.23       
C           174.05      89.19       31.32       
C           174.98      89.76       30.46       
C           173.23      87.68       33.11       
C           172.13      88.6        32.58       
C           172.61      89.47       31.51       
C           177.26      89.39       29.19       
C           178.36      88.49       29.72       
C           177.87      87.6        30.7        
C           170.8       88.56       32.87       
C           169.92      89.31       32.06       
C           170.37      90.23       31.11       
C           171.75      90.36       30.88       
C           179.54      88.25       29.05       
C           180.47      87.29       29.59       
C           180.03      86.49       30.68       
C           178.7       86.58       31.21       
C           173.61      87.95       34.63       
C           172.78      86.19       32.94       
C           177.84      90.8        29.28       
C           176.96      88.93       27.74       
H           174.66      90.58       29.86       
H           176.01      86.71       32.72       
H           179.97      88.84       28.24       
H           178.39      85.94       32.11       
H           170.31      88.07       33.71       
H           172.08      91.01       30.13       
H           172.92      87.44       35.22       
H           174.62      87.61       34.93       
H           173.61      89.01036    34.88247    
H           173.29      85.7        33.73       
H           171.75      86.09       33.32       
H           173.07317   85.76097    31.98183    
H           176.77      89.72       26.98       
H           177.79      88.26       27.35       
H           176.12558   88.22968    27.70275    
H           177.05      91.38       28.82       
H           178.73      90.76       28.64       
H           178.14699   91.07288    30.28965    
H           168.05      88.83       33.0        
H           182.46      87.51       28.72       
S           169.02      91.0        30.33       
C           168.51      89.41       32.23       
C           167.89      90.22       31.35       
C           186.66      84.63       30.81       
C           186.27      85.44       29.7        
C           185.64      84.22       31.56       
N           187.03      86.0        28.77       
N           184.96      86.75       28.49       
O           186.19      86.74       27.94       
H           183.58      84.13       31.88       
H           185.76      83.71       32.5        
C           184.27      84.55       31.21       
C           184.91      85.84       29.44       
C           183.83      85.31       30.2        
C           201.65      82.71       37.44       
C           200.55      82.17       38.02       
S           201.32      83.14       35.76       
C           195.09      82.28       35.5        
C           196.09      82.68       34.61       
C           195.85      83.21       33.37       
C           194.58      83.4        32.92       
C           193.54      83.05       33.79       
C           193.8       82.41       35.06       
C           194.02      83.91       31.52       
C           192.58      83.8        31.77       
C           192.29      83.47       33.1        
C           195.59      81.78       36.87       
C           197.06      81.92       36.64       
C           197.31      82.46       35.41       
C           191.57      84.08       30.89       
C           190.28      84.09       31.33       
C           189.98      83.78       32.62       
C           191.0       83.4        33.51       
C           198.1       81.79       37.47       
C           199.43      82.18       37.19       
C           199.65      82.69       35.87       
C           198.59      82.64       34.92       
C           194.35      83.0        30.29       
C           194.49      85.4        31.27       
C           195.28      80.25       37.05       
C           195.14      82.69       38.06       
H           192.99      82.0        35.73       
H           196.73      83.43       32.67       
H           197.93      81.28       38.41       
H           198.83      83.05       33.88       
H           191.81      84.45       29.89       
H           190.75      83.05       34.5        
H           195.33      83.03       29.87       
H           193.94      83.33       29.36       
H           194.10331   81.95518    30.47865    
H           194.29      85.89       32.22       
H           193.9       85.75       30.43       
H           195.54488   85.4823     31.00815    
H           195.56      82.13       38.95       
H           195.61      83.69       38.07       
H           194.07013   82.72543    38.26547    
H           194.25      80.14       37.46       
H           196.06      79.86       37.71       
H           195.25046   79.6593     36.13441    
H           189.2       84.71       29.49       
H           200.51      81.74       39.04       
S           188.25      83.95       32.92       
C           189.15      84.47       30.57       
C           187.99      84.36       31.22       
C           205.52      84.0        38.84       
C           204.44      83.85       39.76       
C           205.23      83.7        37.56       
N           204.45      84.12       41.07       
N           202.43      83.45       40.37       
O           203.19      83.84       41.37       
H           203.87      82.87       36.09       
H           206.03      83.75       36.78       
C           203.99      83.22       37.13       
C           203.21      83.29       39.36       
C           202.94      83.06       37.99       
C           217.23      94.34       43.49       
C           216.79      94.18       42.2        
S           216.59      93.05       44.49       
C           213.13      89.72       40.23       
C           213.56      89.67       41.57       
C           213.02      88.82       42.43       
C           212.11      87.85       41.94       
C           211.75      87.81       40.6        
C           212.29      88.7        39.69       
C           211.31      86.83       42.78       
C           210.43      86.18       41.67       
C           210.73      86.8        40.42       
C           213.74      90.89       39.52       
C           214.6       91.59       40.61       
C           214.44      90.81       41.8        
C           209.44      85.24       41.76       
C           208.7       84.98       40.55       
C           209.06      85.58       39.35       
C           210.14      86.43       39.21       
C           215.34      92.78       40.63       
C           215.95      93.16       41.88       
C           215.77      92.33       43.07       
C           214.98      91.18       43.02       
C           210.51      87.56       43.95       
C           212.25      85.79       43.38       
C           212.69      91.86       38.97       
C           214.74      90.63       38.34       
H           211.91      88.74       38.65       
H           213.33      88.87       43.48       
H           215.55      93.4        39.71       
H           214.83      90.59       43.91       
H           209.36      84.66       42.67       
H           210.31      86.9        38.25       
H           211.27      88.12       44.48       
H           209.93      88.29       43.35       
H           209.85222   86.93113    44.54996    
H           212.75      86.26       44.25       
H           211.72      84.95       43.82       
H           212.96881   85.30847    42.71702    
H           214.24      90.54       37.41       
H           215.52      91.35       38.29       
H           215.25661   89.67462    38.432      
H           212.23      91.47       38.09       
H           213.16      92.72       38.58       
H           211.94177   92.09973    39.7255     
H           207.05      83.73       41.24       
H           217.23      94.81       41.45       
S           207.87      85.29       38.07       
C           207.49      84.21       40.38       
C           206.88      84.39       39.2        
C           220.57      96.86       44.54       
C           219.39      96.81       45.34       
C           220.54      96.1        43.38       
N           219.09      97.65       46.31       
N           217.28      96.29       45.9        
O           217.8       97.3        46.65       
H           219.41      94.77       42.16       
H           221.4       96.12       42.62       
C           219.43      95.29       43.11       
C           218.23      96.04       45.01       
C           218.31      95.22       43.92       
H           124.73      9.53        39.58       
H           221.26      97.75       44.56       
