612

C           112.87      24.12       5.96        
C           112.32      22.99       5.43        
S           114.31      24.63       5.09        
C           115.16      19.74       1.23        
C           115.75      20.98       1.55        
C           116.86      21.42       0.9         
C           117.41      20.68       -0.14       
C           116.84      19.42       -0.46       
C           115.73      18.93       0.23        
C           118.68      20.93       -0.95       
C           118.71      19.66       -1.85       
C           117.7       18.71       -1.36       
C           113.93      19.52       2.01        
C           113.88      20.79       2.86        
C           114.92      21.67       2.52        
C           119.6       19.28       -2.79       
C           119.44      18.09       -3.44       
C           118.42      17.22       -3.06       
C           117.62      17.42       -1.93       
C           112.91      21.25       3.67        
C           113.12      22.42       4.35        
C           114.17      23.22       4.06        
C           115.08      22.94       3.07        
C           119.93      20.88       -0.04       
C           118.57      22.21       -1.88       
C           114.11      18.36       3.06        
C           112.7       19.35       1.1         
H           115.43      17.88       0.09        
H           117.13      22.5        1.03        
H           112.09      20.66       3.88        
H           115.95      23.55       2.87        
H           120.34      19.96       -3.1        
H           116.84      16.72       -1.68       
H           120.04      21.88       0.42        
H           120.73      20.75       -0.69       
H           119.90174   20.08861    0.709       
H           117.64      22.23       -2.45       
H           119.45      22.23       -2.52       
H           118.53397   23.17559    -1.37559    
H           111.77      19.21       1.66        
H           112.41      20.23       0.47        
H           112.69292   18.4366     0.50523     
H           114.17      17.47       2.47        
H           113.17      18.41       3.56        
H           115.02396   18.44704    3.64754     
H           120.87      18.28       -4.96       
H           111.36      22.53       5.71        
S           118.38      15.83       -4.17       
C           120.17      17.62       -4.52       
C           119.75      16.47       -5.05       
C           111.33      26.81       9.17        
C           110.94      25.44       9.13        
C           112.29      27.13       8.28        
N           110.16      24.73       9.96        
N           110.95      23.28       8.42        
O           110.15      23.48       9.5         
H           113.4       26.6        6.58        
H           112.73      28.04       8.32        
C           112.75      26.17       7.32        
C           111.4       24.5        8.11        
C           112.33      24.9        7.11        
C           109.17      37.58       21.67       
C           109.93      37.92       20.57       
S           108.61      35.95       21.57       
C           110.28      34.37       15.52       
C           109.55      33.86       16.65       
C           109.05      32.53       16.6        
C           109.15      31.81       15.43       
C           109.86      32.29       14.36       
C           110.45      33.63       14.37       
C           108.54      30.41       15.16       
C           109.07      30.16       13.72       
C           109.91      31.25       13.32       
C           110.65      35.82       15.83       
C           110.15      35.95       17.33       
C           109.57      34.76       17.78       
C           108.97      28.97       13.05       
C           109.74      28.76       11.9        
C           110.45      29.9        11.47       
C           110.63      31.17       12.07       
C           110.17      37.02       18.16       
C           109.67      37.02       19.47       
C           109.17      35.82       19.94       
C           109.03      34.7        19.05       
C           107.02      30.55       15.26       
C           109.09      29.32       16.03       
C           109.88      36.82       14.89       
C           112.14      36.21       15.85       
H           111.05      33.96       13.49       
H           108.37      32.19       17.35       
H           110.68      37.9        17.77       
H           108.52      33.87       19.45       
H           108.2       28.19       13.41       
H           111.17      31.99       11.56       
H           106.86      31.14       16.2        
H           106.5       29.62       15.17       
H           106.66716   31.15487    14.4247     
H           110.21      29.14       15.93       
H           108.7       28.39       15.73       
H           108.9243    29.44427    17.10014    
H           112.25      37.24       16.25       
H           112.63      35.58       16.52       
H           112.6159    36.18159    14.86979    
H           110.48      37.68       14.61       
H           109.63      36.39       13.93       
H           108.9648    37.24567    15.30148    
H           109.41      26.55       11.23       
H           110.35      38.93       20.38       
S           111.23      29.51       9.97        
C           109.91      27.58       11.1        
C           110.8       27.83       10.13       
C           109.01      39.55       25.61       
C           110.24      39.58       24.85       
C           108.1       38.63       25.12       
N           111.36      40.22       25.01       
N           111.54      39.06       23.03       
O           112.11      40.01       23.89       
H           107.31      37.56       23.37       
H           107.14      38.71       25.55       
C           108.2       37.97       23.84       
C           110.32      38.84       23.59       
C           109.24      38.1        23.02       
C           102.59      53.65       25.63       
C           101.85      52.52       25.73       
S           104.09      53.49       26.46       
C           103.94      47.37       28.02       
C           104.89      48.41       28.2        
C           106.28      48.2        28.29       
C           106.68      46.95       28.38       
C           105.82      45.88       28.16       
C           104.46      46.06       27.91       
C           108.11      46.48       28.54       
C           107.98      45.03       28.15       
C           106.63      44.71       27.97       
C           102.54      47.87       27.67       
C           102.77      49.35       27.52       
C           104.14      49.62       27.84       
C           108.96      44.07       27.87       
C           108.55      42.76       27.41       
C           107.19      42.52       27.13       
C           106.23      43.54       27.36       
C           101.84      50.3        27.07       
C           102.44      51.54       26.61       
C           103.73      51.85       27.04       
C           104.59      50.92       27.6        
C           108.55      46.73       30.04       
C           109.06      47.26       27.5        
C           101.56      47.37       28.85       
C           102.08      47.23       26.35       
H           103.84      45.26       27.63       
H           107.0       49.04       28.35       
H           100.84      50.1        26.78       
H           105.66      51.29       27.66       
H           109.97      44.33       28.07       
H           105.17      43.4        27.15       
H           108.46      47.72       30.34       
H           107.82      46.3        30.65       
H           109.50541   46.25932    30.27183    
H           108.97      48.35       27.91       
H           110.08      46.91       27.75       
H           108.88377   47.17189    26.42796    
H           101.92      46.16       26.46       
H           101.11      47.58       26.03       
H           102.78255   47.35187    25.52558    
H           100.57      47.18       28.51       
H           101.98      46.43       29.18       
H           101.49844   48.13609    29.62293    
H           110.43      41.57       26.99       
H           100.83      52.45       25.3        
S           106.8       40.92       26.44       
C           109.33      41.63       27.01       
C           108.59      40.55       26.56       
C           102.13      57.17       23.13       
C           101.76      55.87       22.67       
C           102.43      57.2        24.46       
N           101.46      55.39       21.44       
N           101.6       53.58       22.83       
O           101.21      54.08       21.61       
H           103.08      56.31       26.18       
H           102.66      58.16       24.82       
C           102.58      56.12       25.28       
C           101.95      54.68       23.53       
C           102.34      54.83       24.84       
C           108.17      70.64       15.94       
C           107.38      70.66       17.09       
S           108.16      69.04       15.22       
C           104.15      66.01       19.07       
C           104.66      65.81       17.82       
C           104.44      64.66       17.17       
C           103.87      63.61       17.83       
C           103.48      63.77       19.23       
C           103.49      65.07       19.84       
C           103.92      62.07       17.56       
C           103.42      61.48       18.88       
C           103.11      62.47       19.8        
C           104.27      67.51       19.49       
C           105.25      68.0        18.5        
C           105.52      67.01       17.54       
C           103.26      60.15       19.14       
C           102.78      59.73       20.39       
C           102.56      60.73       21.34       
C           102.63      62.1        21.04       
C           105.9       69.21       18.47       
C           106.7       69.46       17.4        
C           106.99      68.48       16.4        
C           106.45      67.26       16.52       
C           105.42      61.65       17.36       
C           103.06      61.7        16.33       
C           104.95      67.61       20.86       
C           102.92      68.2        19.49       
H           103.18      65.27       20.91       
H           104.79      64.54       16.13       
H           105.7       70.06       19.18       
H           106.66      66.47       15.81       
H           103.49      59.32       18.47       
H           102.3       62.84       21.76       
H           105.87      62.1        16.51       
H           105.9       62.09       18.26       
H           105.76195   60.61702    17.29588    
H           103.03      62.58       15.68       
H           103.36      60.73       15.93       
H           101.99063   61.70727    16.54096    
H           102.39      67.95       20.45       
H           103.09      69.27       19.49       
H           102.23444   68.02147    18.66161    
H           104.28      67.33       21.68       
H           105.35      68.58       21.01       
H           105.80699   66.94267    20.95132    
H           102.78      57.45       20.41       
H           107.35      71.47       17.76       
S           102.25      59.95       22.82       
C           102.64      58.36       20.94       
C           102.41      58.32       22.24       
C           110.92      73.42       14.03       
C           110.53      73.6        15.36       
C           110.43      72.27       13.43       
N           110.94      74.56       16.21       
N           109.45      73.21       17.29       
O           110.34      74.23       17.38       
H           109.1       70.58       13.48       
H           110.56      72.05       12.36       
C           109.47      71.39       14.09       
C           109.58      72.76       16.02       
C           109.04      71.63       15.36       
C           125.35      79.61       11.45       
C           124.39      80.27       12.1        
S           124.61      78.4        10.43       
C           118.58      78.69       12.02       
C           119.4       78.02       11.16       
C           118.88      76.98       10.39       
C           117.57      76.6        10.58       
C           116.76      77.29       11.53       
C           117.22      78.47       12.19       
C           116.75      75.63       9.75        
C           115.47      75.54       10.63       
C           115.52      76.6        11.63       
C           119.31      79.8        12.69       
C           120.74      79.48       12.29       
C           120.73      78.39       11.34       
C           114.4       74.68       10.63       
C           113.48      74.86       11.7        
C           113.49      75.92       12.58       
C           114.46      76.92       12.45       
C           121.91      80.12       12.63       
C           123.1       79.72       11.95       
C           123.03      78.67       11.03       
C           121.89      77.94       10.75       
C           117.55      74.31       9.66        
C           116.48      76.12       8.3         
C           119.15      79.7        14.23       
C           118.9       81.17       12.21       
H           116.62      78.96       12.96       
H           119.6       76.5        9.69        
H           122.08      80.95       13.37       
H           121.96      76.93       10.17       
H           114.33      73.8        10.04       
H           114.53      77.75       13.15       
H           118.4       74.55       9.13        
H           117.02      73.51       9.27        
H           117.96406   73.89594    10.57935    
H           117.32      75.74       7.71        
H           115.52      75.64       7.99        
H           116.51603   77.20824    8.24955     
H           118.08      81.59       12.75       
H           119.7       81.88       12.28       
H           118.50366   81.19086    11.19482    
H           118.15      79.91       14.58       
H           119.39      78.69       14.58       
H           119.82237   80.3139     14.82929    
H           112.35      72.92       11.69       
H           124.63      81.13       12.78       
S           112.17      75.94       13.79       
C           112.46      73.92       12.14       
C           111.86      74.3        13.3        
C           129.58      80.02       12.19       
C           128.75      81.13       12.33       
C           129.07      78.83       11.68       
N           128.94      82.37       12.81       
N           126.87      82.2        12.22       
O           127.78      83.06       12.71       
H           127.28      77.68       11.12       
H           129.71      77.94       11.54       
C           127.64      78.7        11.38       
C           127.37      81.04       11.98       
C           126.79      79.8        11.46       
C           145.96      82.75       13.0        
C           145.31      81.94       12.09       
S           144.79      83.59       14.02       
C           139.27      81.16       11.83       
C           139.7       82.08       12.8        
C           138.8       82.7        13.65       
C           137.47      82.42       13.55       
C           137.04      81.54       12.51       
C           137.94      80.9        11.57       
C           136.26      82.74       14.5        
C           135.16      81.89       13.87       
C           135.62      81.27       12.67       
C           140.41      80.63       11.01       
C           141.62      81.3        11.6        
C           141.15      82.14       12.71       
C           133.87      81.74       14.25       
C           132.96      81.05       13.44       
C           133.48      80.31       12.33       
C           134.75      80.44       11.96       
C           143.04      81.18       11.36       
C           143.92      81.92       12.2        
C           143.46      82.79       13.22       
C           142.1       82.89       13.51       
C           136.05      84.34       14.29       
C           136.55      82.33       15.93       
C           140.08      81.08       9.55        
C           140.62      79.06       11.07       
H           137.58      80.32       10.78       
H           139.18      83.42       14.4        
H           143.43      80.5        10.64       
H           141.76      83.56       14.2        
H           133.48      82.24       15.04       
H           135.05      79.9        11.08       
H           136.97      84.91       14.39       
H           135.78      84.35       13.24       
H           135.24881   84.82213    14.85013    
H           137.52      82.81       16.19       
H           135.86      82.9        16.56       
H           136.5643    81.26439    16.15886    
H           139.98      78.5        10.39       
H           141.68      78.81       10.68       
H           140.53553   78.68693    12.09068    
H           139.5       80.22       9.12        
H           139.39      81.99       9.6         
H           140.92282   81.37499    8.92491     
H           130.97      81.4        14.26       
H           145.86      81.31       11.4        
S           132.11      79.53       11.41       
C           131.59      80.92       13.55       
C           130.99      80.12       12.56       
C           150.09      83.08       14.53       
C           149.7       82.03       13.56       
C           149.08      83.97       14.76       
N           150.37      80.97       13.04       
N           148.31      81.07       12.22       
O           149.5       80.42       12.16       
H           147.11      84.69       14.42       
H           149.32      84.77       15.37       
C           147.75      83.93       14.18       
C           148.37      82.08       13.01       
C           147.35      82.96       13.35       
C           165.39      86.07       20.04       
C           165.21      85.0        19.27       
S           163.85      86.68       20.65       
C           159.59      82.96       17.62       
C           159.69      84.01       18.55       
C           158.61      84.61       19.13       
C           157.38      84.33       18.59       
C           157.21      83.39       17.5        
C           158.31      82.65       17.05       
C           156.04      84.95       18.94       
C           155.23      84.49       17.77       
C           155.87      83.52       16.94       
C           161.0       82.48       17.29       
C           161.91      83.38       18.15       
C           161.07      84.2        18.93       
C           153.87      84.7        17.61       
C           153.16      84.03       16.52       
C           153.83      83.06       15.76       
C           155.15      82.82       15.94       
C           163.26      83.59       18.16       
C           163.82      84.59       19.03       
C           162.97      85.39       19.85       
C           161.57      85.11       19.89       
C           155.91      86.48       18.98       
C           155.57      84.41       20.32       
C           161.32      82.69       15.79       
C           161.21      81.02       17.74       
H           158.15      82.04       16.1        
H           158.61      85.29       19.95       
H           163.9       83.02       17.53       
H           160.89      85.7        20.44       
H           153.31      85.31       18.29       
H           155.64      82.1        15.35       
H           154.84      86.73       18.89       
H           156.14      86.93       19.92       
H           156.53545   86.99426    18.25031    
H           156.14      84.93       21.05       
H           154.51      84.55       20.57       
H           155.86593   83.37786    20.50766    
H           162.28      80.75       17.48       
H           161.11      80.86       18.84       
H           160.48731   80.29731    17.36112    
H           160.71      81.94       15.2        
H           162.36      82.42       15.58       
H           161.1076    83.67412    15.37228    
H           151.11      84.66       16.76       
H           166.04      84.54       18.74       
S           152.79      82.15       14.69       
C           151.76      84.08       16.12       
C           151.37      83.1        15.19       
C           168.89      88.68       20.79       
C           168.79      87.93       19.55       
C           167.8       88.48       21.58       
N           169.53      88.04       18.44       
N           167.8       86.67       18.06       
O           168.92      87.18       17.59       
H           165.88      87.52       22.06       
H           167.78      88.94       22.56       
C           166.71      87.6        21.3        
C           167.67      87.12       19.25       
C           166.57      86.94       20.2        
C           180.12      99.97       25.63       
C           179.32      99.29       26.55       
S           180.32      98.96       24.16       
C           175.78      94.44       25.21       
C           176.57      94.95       24.08       
C           176.45      94.53       22.76       
C           175.43      93.64       22.46       
C           174.55      93.26       23.42       
C           174.76      93.56       24.84       
C           175.01      93.33       21.08       
C           173.75      92.5        21.35       
C           173.49      92.48       22.74       
C           175.87      95.36       26.4        
C           177.1       96.23       26.0        
C           177.42      96.0        24.69       
C           172.82      91.84       20.49       
C           171.71      91.21       21.01       
C           171.54      91.16       22.39       
C           172.38      91.85       23.27       
C           177.79      97.19       26.74       
C           178.68      98.1        26.01       
C           179.14      97.78       24.74       
C           178.52      96.73       24.03       
C           176.29      92.54       20.51       
C           174.65      94.61       20.26       
C           176.13      94.43       27.61       
C           174.6       96.28       26.57       
H           174.19      93.11       25.63       
H           177.2       94.88       22.07       
H           177.64      97.3        27.81       
H           178.81      96.46       23.04       
H           173.0       91.74       19.43       
H           172.2       91.86       24.38       
H           177.14      93.26       20.34       
H           176.67      91.86       21.31       
H           176.06508   91.94504    19.62482    
H           175.52      95.18       20.17       
H           174.25      94.34       19.27       
H           173.90014   95.23253    20.74812    
H           174.71      96.9        27.43       
H           174.44      96.87       25.71       
H           173.6378    95.81646    26.78772    
H           175.48      93.7        27.92       
H           176.22      95.1        28.42       
H           177.11763   93.97249    27.5519     
H           170.82      90.27       19.2        
H           179.05      99.76       27.5        
S           170.11      90.24       22.8        
C           170.77      90.41       20.3        
C           169.88      89.69       21.13       
C           181.83      103.98      25.39       
C           180.77      103.75      26.23       
C           182.35      102.88      24.8        
N           180.15      104.5       27.19       
N           179.22      102.44      27.06       
O           179.24      103.62      27.72       
H           182.37      100.77      24.32       
H           183.3       103.0       24.33       
C           181.82      101.54      24.82       
C           180.23      102.44      26.21       
C           180.69      101.28      25.51       
C           190.1       116.93      19.4        
C           190.14      115.71      18.84       
S           189.09      117.04      20.81       
C           187.35      110.92      21.31       
C           187.18      112.11      21.95       
C           186.49      112.27      23.23       
C           185.82      111.11      23.62       
C           185.84      110.01      22.8        
C           186.5       109.92      21.55       
C           184.91      110.92      24.82       
C           184.53      109.48      24.61       
C           184.96      108.96      23.38       
C           188.32      111.04      20.08       
C           188.64      112.51      20.16       
C           188.03      113.11      21.28       
C           183.6       108.81      25.41       
C           183.18      107.5       24.96       
C           183.7       107.0       23.71       
C           184.6       107.74      22.92       
C           189.42      113.3       19.32       
C           189.47      114.71      19.57       
C           188.92      115.28      20.73       
C           188.14      114.44      21.55       
C           183.58      111.73      24.68       
C           185.59      111.1       26.18       
C           187.61      110.74      18.77       
C           189.69      110.3       20.21       
H           186.62      108.96      21.03       
H           186.39      113.24      23.74       
H           189.96      112.86      18.52       
H           187.79      114.9       22.48       
H           183.16      109.3       26.32       
H           185.02      107.37      21.93       
H           183.48      112.73      25.11       
H           182.81      111.23      25.23       
H           183.18303   111.81988   23.66884    
H           186.52      110.51      26.29       
H           184.99      110.66      27.03       
H           185.91534   112.11845   26.39218    
H           190.21      110.42      19.28       
H           190.17      110.77      20.98       
H           189.62695   109.21408   20.28006    
H           187.45      109.62      18.79       
H           188.28      110.83      17.9        
H           186.7366    111.36283   18.57671    
H           181.85      106.55      26.58       
H           190.85      115.48      17.99       
S           183.0       105.42      23.36       
C           182.37      106.45      25.59       
C           182.44      105.24      25.0        
C           192.03      120.64      17.97       
C           192.76      119.37      17.95       
C           190.72      120.47      18.42       
N           193.94      119.06      17.45       
N           192.99      117.1       18.14       
O           194.06      117.71      17.58       
H           189.08      119.37      19.11       
H           190.03      121.31      18.38       
C           190.15      119.31      18.97       
C           192.11      118.12      18.36       
C           190.77      118.09      18.89       
C           196.51      135.49      11.66       
C           195.33      135.24      12.22       
S           197.58      134.03      11.81       
C           193.44      129.76      14.22       
C           194.84      129.92      13.96       
C           195.7       128.86      14.18       
C           195.25      127.68      14.82       
C           193.88      127.57      15.15       
C           192.95      128.57      14.78       
C           196.07      126.5       15.32       
C           194.93      125.61      15.77       
C           193.66      126.26      15.81       
C           192.78      131.13      14.13       
C           193.94      132.05      13.71       
C           195.13      131.24      13.51       
C           195.02      124.29      16.11       
C           193.88      123.55      16.58       
C           192.68      124.3       16.83       
C           192.49      125.68      16.39       
C           193.94      133.4       13.32       
C           195.16      133.93      12.83       
C           196.29      133.14      12.6        
C           196.35      131.83      12.99       
C           197.02      126.98      16.37       
C           196.88      125.75      14.25       
C           192.25      131.6       15.53       
C           191.78      131.15      12.96       
H           191.92      128.46      14.87       
H           196.72      129.04      13.92       
H           193.08      134.08      13.42       
H           197.2       131.25      12.81       
H           195.91      123.67      15.88       
H           191.58      126.19      16.45       
H           197.98      127.26      15.88       
H           196.56      127.84      16.85       
H           197.32789   126.30558   17.16904    
H           197.62      126.45      13.97       
H           197.47      124.93      14.65       
H           196.24125   125.38398   13.44618    
H           190.88      131.75      13.24       
H           192.18      131.61      12.06       
H           191.47036   130.14737   12.66511    
H           191.62      130.79      15.93       
H           191.53      132.44      15.31       
H           193.08615   131.83384   16.189      
H           194.62      121.48      16.81       
H           194.52      136.0       12.14       
S           191.53      123.21      17.43       
C           193.8       122.13      16.84       
C           192.6       121.82      17.39       
C           198.2       139.24      9.74        
C           196.81      138.84      9.67        
C           198.95      138.22      10.3        
N           195.84      139.57      9.13        
N           194.89      137.74      10.0        
O           194.68      138.92      9.47        
H           199.1       136.16      11.13       
H           200.01      138.24      10.26       
C           198.39      136.96      10.8        
C           196.21      137.63      10.2        
C           197.03      136.65      10.86       
H           120.17      16.07       -5.98       
H           198.64      140.21      9.46        
