612

C           97.18       40.61       44.61       
C           97.35       39.64       43.64       
S           95.6        40.57       45.35       
C           92.95       35.72       42.1        
C           92.57       36.66       43.04       
C           91.23       36.71       43.46       
C           90.29       35.9        42.93       
C           90.65       34.96       41.91       
C           91.98       35.03       41.44       
C           88.86       35.6        43.28       
C           88.43       34.49       42.26       
C           89.58       34.09       41.52       
C           94.45       35.76       41.86       
C           94.86       37.08       42.53       
C           93.75       37.44       43.35       
C           87.23       33.84       42.11       
C           87.1        32.82       41.17       
C           88.33       32.46       40.46       
C           89.5        33.07       40.61       
C           96.06       37.68       42.64       
C           96.21       38.7        43.57       
C           95.17       39.11       44.45       
C           93.9        38.48       44.36       
C           87.99       36.84       43.02       
C           88.63       34.88       44.65       
C           94.77       35.74       40.32       
C           95.2        34.54       42.57       
H           92.32       34.45       40.57       
H           90.91       37.42       44.17       
H           96.87       37.44       41.99       
H           93.05       38.81       44.92       
H           86.35       34.07       42.72       
H           90.41       32.84       40.07       
H           88.2        37.71       43.65       
H           87.0        36.5        43.38       
H           87.94748    37.18017    41.98531    
H           89.19       33.93       44.68       
H           87.66       34.5        44.75       
H           88.84249    35.48815    45.52926    
H           96.17       34.43       42.16       
H           95.41       34.61       43.64       
H           94.71438    33.58284    42.37997    
H           94.51       34.72       39.93       
H           95.84       35.7        40.12       
H           94.36819    36.60001    39.78425    
H           85.12       32.18       41.33       
H           98.21       39.54       43.06       
S           87.91       31.11       39.33       
C           86.04       31.98       40.86       
C           86.22       31.13       39.88       
C           100.22      43.48       45.99       
C           100.31      42.89       44.67       
C           98.98       43.36       46.58       
N           101.24      42.95       43.69       
N           99.48       41.74       42.96       
O           100.73      42.26       42.66       
H           97.11       42.18       46.9        
H           98.86       43.85       47.5        
C           97.97       42.4        46.21       
C           99.24       42.07       44.22       
C           98.09       41.66       45.05       
C           108.74      56.38       51.85       
C           107.6       55.84       52.49       
S           109.45      55.13       50.83       
C           105.16      50.55       50.72       
C           106.33      50.85       50.06       
C           106.85      50.09       48.98       
C           106.02      49.07       48.51       
C           104.84      48.79       49.17       
C           104.39      49.47       50.33       
C           106.11      48.22       47.22       
C           104.86      47.36       47.3        
C           104.1       47.76       48.44       
C           104.79      51.55       51.8        
C           105.93      52.58       51.64       
C           106.79      52.16       50.6        
C           104.38      46.42       46.44       
C           103.11      45.86       46.7        
C           102.4       46.23       47.88       
C           102.94      47.14       48.78       
C           106.13      53.74       52.3        
C           107.26      54.53       52.0        
C           108.13      54.01       50.96       
C           107.93      52.87       50.21       
C           107.38      47.3        47.16       
C           106.06      49.11       46.0        
C           104.93      50.86       53.17       
C           103.48      52.33       51.58       
H           103.42      49.24       50.77       
H           107.77      50.36       48.52       
H           105.39      54.17       52.96       
H           108.58      52.7        49.32       
H           105.03      46.01       45.63       
H           102.43      47.51       49.68       
H           108.26      47.9        47.25       
H           107.35      46.72       46.27       
H           107.40206   46.66034    48.04229    
H           105.19      49.78       45.89       
H           106.0       48.48       45.09       
H           106.90687   49.79027    45.90976    
H           103.35      53.17       52.35       
H           103.44      52.88       50.62       
H           102.56449   51.73844    51.58       
H           104.07      51.16       53.85       
H           104.59      49.85       53.02       
H           105.92328   50.75281    53.6059     
H           102.88      44.47       45.01       
H           107.04      56.33       53.25       
S           101.03      45.16       48.0        
C           102.41      44.85       45.91       
C           101.25      44.42       46.45       
C           110.65      60.33       51.94       
C           109.78      59.89       53.03       
C           110.9       59.42       50.99       
N           109.39      60.6        54.07       
N           108.24      58.64       53.99       
O           108.53      59.78       54.68       
H           110.6       57.43       50.29       
H           111.72      59.53       50.26       
C           110.32      58.13       51.05       
C           109.12      58.65       53.02       
C           109.38      57.71       51.99       
C           119.2       74.1        48.57       
C           119.14      73.01       47.77       
S           118.53      73.71       50.16       
C           116.68      67.67       49.02       
C           116.6       68.66       50.01       
C           116.08      68.33       51.26       
C           115.41      67.14       51.52       
C           115.26      66.32       50.39       
C           115.95      66.45       49.14       
C           114.76      66.68       52.8        
C           113.96      65.48       52.26       
C           114.29      65.3        50.87       
C           117.54      68.22       47.79       
C           117.63      69.67       48.22       
C           117.28      69.88       49.56       
C           113.13      64.61       52.95       
C           112.53      63.57       52.27       
C           112.71      63.51       50.84       
C           113.65      64.28       50.17       
C           118.34      70.69       47.63       
C           118.47      71.89       48.26       
C           118.08      72.08       49.62       
C           117.51      71.0        50.3        
C           113.91      67.84       53.16       
C           115.82      66.4        53.94       
C           116.92      68.0        46.4        
C           118.92      67.54       47.77       
H           115.88      65.62       48.37       
H           116.26      68.99       52.11       
H           118.71      70.56       46.64       
H           117.43      70.89       51.39       
H           112.92      64.84       53.96       
H           113.97      64.02       49.15       
H           114.41      68.74       53.4        
H           113.35      68.13       52.26       
H           113.18941   67.61436    53.94609    
H           116.13      67.38       54.22       
H           115.34      65.92       54.82       
H           116.71256   65.90804    53.55346    
H           119.51      68.0        47.0        
H           119.35      67.74       48.82       
H           118.93487   66.4544     47.67334    
H           117.56      68.39       45.64       
H           116.83      66.86       46.34       
H           115.94359   68.47363    46.29799    
H           111.49      62.26       53.79       
H           119.52      72.99       46.77       
S           111.95      62.15       50.23       
C           111.68      62.51       52.74       
C           111.34      61.66       51.78       
C           120.39      78.27       47.73       
C           120.52      77.27       46.73       
C           120.02      77.82       48.96       
N           120.9       77.31       45.44       
N           120.27      75.24       45.8        
O           120.83      76.06       44.89       
H           119.39      76.16       50.19       
H           119.89      78.54       49.81       
C           119.69      76.45       49.21       
C           120.12      75.89       46.97       
C           119.68      75.46       48.29       
C           124.72      94.22       47.06       
C           124.0       93.81       48.08       
S           125.02      92.98       45.89       
C           122.52      87.85       48.42       
C           122.81      88.34       47.14       
C           122.77      87.52       46.03       
C           122.48      86.18       46.19       
C           122.27      85.67       47.48       
C           122.23      86.5        48.62       
C           122.09      85.23       45.1        
C           122.03      83.99       45.93       
C           121.98      84.24       47.32       
C           122.21      89.03       49.37       
C           122.79      90.19       48.61       
C           123.24      89.7        47.38       
C           121.76      82.71       45.49       
C           121.5       81.67       46.45       
C           121.42      82.0        47.84       
C           121.77      83.27       48.29       
C           122.95      91.55       48.91       
C           123.68      92.38       48.03       
C           124.17      91.77       46.84       
C           123.83      90.48       46.38       
C           123.19      85.2        44.03       
C           120.76      85.57       44.39       
C           122.85      88.91       50.79       
C           120.68      89.31       49.4        
H           121.93      86.16       49.58       
H           123.1       87.93       45.11       
H           122.68      91.99       49.89       
H           124.11      90.1        45.39       
H           121.94      82.52       44.42       
H           121.62      83.55       49.37       
H           122.84      84.95       43.06       
H           123.72      86.14       43.85       
H           124.00378   84.52299    44.28986    
H           120.78      86.46       43.84       
H           120.46      84.8        43.7        
H           119.85312   85.68859    44.98296    
H           120.54      90.28       49.93       
H           120.52      89.36       48.32       
H           120.08906   88.53169    49.88284    
H           122.45      88.01       51.37       
H           122.49      89.71       51.39       
H           123.93922   88.87464    50.81122    
H           120.91      79.9        45.28       
H           123.73      94.45       48.96       
S           120.99      80.64       48.82       
C           121.05      80.35       46.24       
C           120.75      79.64       47.4        
C           126.03      98.14       45.69       
C           124.85      98.05       46.4        
C           126.83      96.98       45.7        
N           123.95      98.99       46.71       
N           123.33      97.01       47.66       
O           123.0       98.36       47.53       
H           127.06      94.87       45.98       
H           127.74      96.87       45.06       
C           126.36      95.73       46.15       
C           124.46      96.83       47.0        
C           125.15      95.57       46.74       
C           130.29      108.41      33.21       
C           128.98      108.0       33.43       
S           131.29      108.06      34.58       
C           127.08      104.88      38.32       
C           128.48      104.99      38.14       
C           129.34      104.54      39.16       
C           128.83      103.61      40.1        
C           127.44      103.43      40.25       
C           126.58      104.18      39.45       
C           129.63      102.57      40.91       
C           128.51      102.0       41.77       
C           127.18      102.47      41.41       
C           126.35      105.6       37.23       
C           127.5       106.2       36.43       
C           128.73      105.88      37.02       
C           128.69      100.99      42.73       
C           127.56      100.46      43.29       
C           126.31      101.01      43.03       
C           126.05      101.94      42.06       
C           127.51      106.84      35.19       
C           128.74      107.36      34.65       
C           129.95      107.22      35.4        
C           129.95      106.52      36.62       
C           130.69      103.25      41.77       
C           130.22      101.45      40.1        
C           125.29      106.65      37.74       
C           125.58      104.55      36.42       
H           125.52      104.09      39.51       
H           130.38      104.8       39.15       
H           126.62      106.96      34.64       
H           130.82      106.42      37.22       
H           129.68      100.7       42.95       
H           125.04      102.31      41.84       
H           131.46      103.77      41.15       
H           131.18      102.41      42.23       
H           130.30932   103.93083   42.53135    
H           131.19      101.83      39.79       
H           130.5       100.5       40.6        
H           129.61487   101.24354   39.21722    
H           124.98      103.92      37.08       
H           124.94      104.98      35.62       
H           126.21464   103.82267   35.91372    
H           124.52      106.75      36.98       
H           124.81      106.39      38.66       
H           125.73125   107.61207   38.00041    
H           128.44      98.91       44.53       
H           128.26      108.18      32.66       
S           125.1       100.2       44.05       
C           127.54      99.48       44.22       
C           126.36      99.25       44.83       
C           132.42      109.44      29.53       
C           131.12      108.77      29.54       
C           132.82      109.88      30.77       
N           130.39      108.38      28.52       
N           129.24      108.11      30.43       
O           129.21      107.92      29.06       
H           132.7       109.66      32.92       
H           133.8       110.36      30.84       
C           132.2       109.52      32.0        
C           130.33      108.69      30.74       
C           130.92      108.93      32.05       
C           143.15      112.03      17.06       
C           142.95      112.94      18.06       
S           142.09      110.57      17.17       
C           138.9       112.08      22.58       
C           138.87      111.17      21.55       
C           138.03      109.99      21.63       
C           137.24      109.88      22.74       
C           137.28      110.82      23.8        
C           138.17      111.94      23.72       
C           136.2       108.81      22.97       
C           135.64      109.3       24.28       
C           136.3       110.4       24.78       
C           139.93      113.11      22.27       
C           140.45      112.76      20.89       
C           139.77      111.54      20.47       
C           134.62      108.7       24.96       
C           134.34      109.26      26.28       
C           135.04      110.42      26.78       
C           136.05      110.98      26.06       
C           141.45      113.29      20.13       
C           141.87      112.65      18.96       
C           141.3       111.37      18.57       
C           140.22      110.84      19.32       
C           136.95      107.47      23.02       
C           135.13      108.89      21.92       
C           141.12      112.93      23.27       
C           139.38      114.54      22.21       
H           138.22      112.76      24.48       
H           138.05      109.19      20.88       
H           141.98      114.21      20.36       
H           139.75      109.84      19.11       
H           134.02      107.92      24.6        
H           136.66      111.77      26.49       
H           137.6       107.29      22.18       
H           137.53      107.47      23.98       
H           136.25962   106.63015   23.09829    
H           135.65      108.68      20.96       
H           134.43      108.07      22.12       
H           134.71891   109.89333   21.80852    
H           139.24      114.91      23.22       
H           140.14      115.29      21.84       
H           138.48524   114.67282   21.60184    
H           140.96      112.06      23.93       
H           142.01      112.6       22.68       
H           141.38663   113.68778   24.00673    
H           132.7       108.06      27.08       
H           143.56      113.81      18.15       
S           134.63      110.71      28.44       
C           133.33      108.91      27.19       
C           133.33      109.57      28.4        
C           146.16      112.04      13.72       
C           145.51      113.22      14.17       
C           145.78      110.93      14.51       
N           145.61      114.45      13.75       
N           144.24      114.51      15.55       
O           144.95      115.26      14.63       
H           144.56      109.93      15.95       
H           146.28      109.96      14.42       
C           144.71      110.93      15.46       
C           144.58      113.25      15.3        
C           144.08      112.12      15.93       
C           158.79      110.67      2.71        
C           158.49      111.72      3.45        
S           157.7       109.38      3.23        
C           153.73      112.44      7.2         
C           153.93      111.1       6.76        
C           153.04      109.99      7.09        
C           152.0       110.26      7.94        
C           151.76      111.55      8.49        
C           152.66      112.6       8.13        
C           151.12      109.25      8.57        
C           150.29      110.18      9.51        
C           150.66      111.51      9.43        
C           154.84      113.42      6.66        
C           155.56      112.43      5.79        
C           155.06      111.11      5.86        
C           149.26      109.91      10.39       
C           148.57      110.9       11.12       
C           148.91      112.19      10.93       
C           149.93      112.49      10.06       
C           156.69      112.69      5.03        
C           157.31      111.65      4.35        
C           156.67      110.41      4.34        
C           155.56      110.08      5.05        
C           152.0       108.25      9.35        
C           150.26      108.59      7.42        
C           155.88      113.83      7.75        
C           154.35      114.64      5.83        
H           152.57      113.54      8.67        
H           153.23      108.98      6.69        
H           157.23      113.69      4.94        
H           155.06      109.09      5.05        
H           148.89      108.93      10.46       
H           150.15      113.53      10.02       
H           151.86      107.28      8.86        
H           153.06      108.46      9.22        
H           151.85482   108.18778   10.42849    
H           150.74      107.67      7.04        
H           149.34      108.22      7.87        
H           149.98858   109.32568   6.66289     
H           155.18      115.22      5.46        
H           153.97      114.2       4.9         
H           153.77492   115.3825    6.38324     
H           155.43      114.38      8.57        
H           156.74      114.47      7.42        
H           156.4345    113.00535   8.19787     
H           147.0       109.81      12.33       
H           159.06      112.72      3.39        
S           148.0       113.27      11.92       
C           147.53      110.76      12.05       
C           147.12      111.95      12.63       
C           162.22      109.79      0.07        
C           162.32      110.76      1.09        
C           161.09      109.02      0.14        
N           163.34      111.65      1.36        
N           161.68      111.86      2.91        
O           162.91      112.25      2.48        
H           159.09      108.66      0.82        
H           161.0       108.19      -0.56       
C           159.95      109.32      0.95        
C           161.22      111.0       2.01        
C           159.97      110.3       1.89        
C           172.67      103.16      -11.11      
C           171.47      103.5       -11.45      
S           172.95      103.46      -9.39       
C           167.25      105.36      -7.39       
C           168.6       105.26      -6.93       
C           169.06      105.75      -5.69       
C           168.1       106.42      -4.94       
C           166.68      106.51      -5.3        
C           166.28      105.97      -6.52       
C           168.28      106.88      -3.48       
C           166.94      107.51      -3.17       
C           166.03      107.29      -4.22       
C           167.21      105.2       -8.94       
C           168.61      104.68      -9.2        
C           169.4       104.7       -8.06       
C           166.58      108.2       -1.95       
C           165.27      108.54      -1.82       
C           164.34      108.33      -2.89       
C           164.65      107.56      -4.0        
C           169.21      104.31      -10.38      
C           170.59      103.92      -10.37      
C           171.35      103.98      -9.14       
C           170.7       104.32      -7.99       
C           169.51      107.83      -3.42       
C           168.58      105.59      -2.63       
C           166.86      106.62      -9.56       
C           166.21      104.1       -9.44       
H           165.24      106.11      -6.79       
H           170.15      105.72      -5.42       
H           168.75      104.45      -11.33      
H           171.14      104.35      -6.98       
H           167.15      108.23      -1.06       
H           163.88      107.27      -4.73       
H           169.86      108.1       -2.46       
H           170.35      107.3       -3.76       
H           169.29736   108.68788   -4.05791    
H           169.44      104.99      -3.04       
H           168.86      105.94      -1.58       
H           167.70348   104.95253   -2.5141     
H           165.27      104.55      -9.74       
H           166.61      103.42      -10.2       
H           165.81214   103.38243   -8.72243    
H           165.94      106.85      -9.13       
H           166.74      106.47      -10.61      
H           167.54771   107.44389   -9.36935    
H           165.09      109.64      0.13        
H           171.11      103.44      -12.5       
S           162.75      108.92      -2.47       
C           164.59      109.31      -0.75       
C           163.27      109.47      -0.94       
C           176.08      101.75      -13.57      
C           174.87      102.34      -14.13      
C           176.06      101.74      -12.23      
N           174.62      102.61      -15.4       
N           172.95      103.34      -14.13      
O           173.37      103.2       -15.39      
H           175.09      102.1       -10.36      
H           176.85      101.34      -11.69      
C           174.96      102.12      -11.44      
C           173.82      102.79      -13.33      
C           173.81      102.64      -11.89      
C           189.51      97.93       -22.69      
C           188.39      98.5        -23.23      
S           189.44      97.78       -20.97      
C           183.31      99.24       -19.96      
C           184.41      98.69       -19.29      
C           184.35      98.45       -17.89      
C           183.22      98.92       -17.17      
C           182.18      99.62       -17.88      
C           182.2       99.66       -19.24      
C           182.84      98.8        -15.66      
C           181.45      99.44       -15.67      
C           181.09      100.0       -16.91      
C           183.61      99.37       -21.43      
C           185.08      98.95       -21.5       
C           185.52      98.52       -20.23      
C           180.58      99.64       -14.59      
C           179.38      100.32      -14.75      
C           179.07      100.9       -15.96      
C           179.92      100.75      -17.02      
C           185.95      98.94       -22.57      
C           187.33      98.65       -22.33      
C           187.74      98.26       -21.02      
C           186.85      98.18       -19.96      
C           183.79      99.56       -14.68      
C           182.66      97.32       -15.31      
C           183.34      100.84      -21.91      
C           182.82      98.4        -22.32      
H           181.37      100.05      -19.83      
H           185.08      97.8        -17.44      
H           185.67      99.47       -23.46      
H           187.15      97.99       -18.94      
H           180.71      99.02       -13.66      
H           179.59      101.15      -17.97      
H           184.88      99.26       -14.83      
H           183.45      99.32       -13.64      
H           183.81089   100.63222   -14.87495   
H           181.92      96.81       -15.91      
H           182.22      97.33       -14.3       
H           183.57109   96.7383     -15.16983   
H           181.74      98.46       -22.08      
H           182.91      98.64       -23.38      
H           183.20418   97.38017    -22.29904   
H           182.21      100.82      -22.01      
H           183.78      101.0       -22.89      
H           183.72085   101.62285   -21.2541    
H           178.38      100.11      -12.83      
H           188.3       98.63       -24.32      
S           177.54      101.67      -15.92      
C           178.35      100.55      -13.85      
C           177.26      101.25      -14.3       
C           193.31      96.68       -24.58      
C           192.38      97.48       -25.27      
C           192.9       96.4        -23.3       
N           192.36      97.91       -26.54      
N           190.55      98.71       -25.47      
O           191.3       98.73       -26.6       
H           191.47      96.41       -21.66      
H           193.52      95.76       -22.64      
C           191.65      96.78       -22.72      
C           191.18      97.96       -24.64      
C           190.8       97.57       -23.31      
C           206.13      91.56       -33.4       
C           205.96      92.9        -33.1       
S           205.03      90.58       -32.46      
C           201.9       94.81       -29.05      
C           202.06      93.42       -29.11      
C           201.25      92.51       -28.45      
C           200.22      93.07       -27.73      
C           199.99      94.47       -27.67      
C           200.82      95.38       -28.34      
C           199.02      92.38       -27.04      
C           198.2       93.55       -26.46      
C           198.73      94.79       -26.92      
C           202.94      95.58       -29.89      
C           203.82      94.41       -30.32      
C           203.28      93.13       -29.89      
C           197.02      93.56       -25.76      
C           196.32      94.79       -25.6       
C           196.88      95.98       -26.04      
C           198.12      96.05       -26.73      
C           204.75      94.39       -31.4       
C           205.04      93.13       -32.02      
C           204.54      91.96       -31.45      
C           203.77      91.93       -30.38      
C           199.37      91.61       -25.71      
C           198.14      91.53       -27.97      
C           203.67      96.59       -29.02      
C           202.28      96.22       -31.13      
H           200.58      96.47       -28.23      
H           201.27      91.37       -28.51      
H           205.14      95.32       -31.79      
H           203.32      91.04       -30.04      
H           196.66      92.6        -25.39      
H           198.52      97.06       -27.07      
H           198.56      91.08       -25.24      
H           200.18      90.85       -25.95      
H           199.86386   92.26364    -24.991     
H           198.74      90.72       -28.31      
H           197.33      91.2        -27.34      
H           197.80132   92.06913    -28.85472   
H           203.09      96.53       -31.84      
H           201.66      95.55       -31.71      
H           201.63686   97.08239    -30.9546    
H           203.07      97.43       -28.7       
H           204.54      96.96       -29.55      
H           204.10254   96.11348    -28.14026   
H           194.42      94.17       -24.57      
H           206.47      93.67       -33.64      
S           195.82      97.35       -25.8       
C           195.04      94.97       -25.01      
C           194.59      96.23       -25.14      
C           209.2       89.65       -35.91      
C           209.2       91.03       -35.67      
C           208.11      89.03       -35.35      
N           210.11      91.96       -36.01      
N           208.49      93.02       -34.86      
O           209.64      93.17       -35.53      
H           206.42      89.03       -34.05      
H           207.87      87.98       -35.66      
C           207.16      89.61       -34.5       
C           208.17      91.71       -34.96      
C           207.11      90.98       -34.29      
H           85.43       30.52       39.45       
H           209.91      89.21       -36.63      
