612

C           82.44       14.87       24.74       
C           83.34       14.65       25.75       
S           80.8        14.72       25.39       
C           81.73       12.35       31.2        
C           80.66       13.05       30.49       
C           79.4        13.16       31.05       
C           79.21       12.81       32.39       
C           80.29       12.08       33.1        
C           81.54       11.78       32.47       
C           77.91       12.7        33.27       
C           78.44       11.98       34.54       
C           79.79       11.54       34.35       
C           83.1        12.72       30.59       
C           82.65       13.24       29.24       
C           81.2        13.35       29.18       
C           77.69       11.49       35.55       
C           78.29       10.74       36.53       
C           79.71       10.45       36.41       
C           80.44       10.75       35.27       
C           83.41       13.7        28.17       
C           82.8        14.17       26.98       
C           81.37       14.1        26.9        
C           80.57       13.85       28.04       
C           76.72       11.85       32.75       
C           77.31       14.03       33.8        
C           84.01       11.47       30.37       
C           83.92       13.87       31.24       
H           82.43       11.37       32.97       
H           78.56       13.63       30.48       
H           84.49       13.64       28.18       
H           79.49       13.89       27.95       
H           76.64       11.68       35.65       
H           81.5        10.45       35.14       
H           76.43       12.22       31.73       
H           75.82       11.9        33.43       
H           76.94925    10.80102    32.56243    
H           77.96       14.62       34.45       
H           76.45       13.81       34.47       
H           77.07363    14.76061    33.02641    
H           84.73       14.27       30.65       
H           83.32       14.75       31.31       
H           84.34523    13.66472    32.22242    
H           83.97       10.82       31.25       
H           85.03       11.7        30.26       
H           83.72262    10.80185    29.55816    
H           76.71       10.26       38.12       
H           84.42       14.6        25.54       
S           80.3        9.51        37.81       
C           77.77       10.2        37.76       
C           78.71       9.64        38.58       
C           83.18       16.64       20.73       
C           84.16       15.83       21.42       
C           82.04       16.59       21.34       
N           85.38       15.49       21.07       
N           85.06       14.54       23.13       
O           85.97       14.76       22.09       
H           80.78       16.18       23.07       
H           81.19       17.02       20.83       
C           81.78       16.02       22.66       
C           83.99       15.25       22.77       
C           82.68       15.35       23.41       
C           86.32       21.15       5.28        
C           85.1        21.22       5.85        
S           87.55       21.07       6.52        
C           84.12       20.58       11.76       
C           85.46       20.8        11.43       
C           86.45       20.55       12.41       
C           86.09       20.08       13.68       
C           84.69       19.81       13.88       
C           83.73       20.29       13.0        
C           86.87       19.43       14.79       
C           85.78       19.11       15.73       
C           84.52       19.36       15.22       
C           83.18       20.91       10.61       
C           84.13       21.21       9.49        
C           85.48       21.22       10.03       
C           85.93       18.68       17.02       
C           84.79       18.38       17.76       
C           83.48       18.51       17.23       
C           83.31       19.04       15.91       
C           83.94       21.22       8.11        
C           85.05       21.27       7.26        
C           86.39       21.22       7.8         
C           86.58       21.23       9.17        
C           87.93       20.34       15.42       
C           87.46       18.03       14.42       
C           82.21       22.07       10.98       
C           82.36       19.57       10.34       
H           82.68       20.21       13.27       
H           87.46       20.9        12.2        
H           82.88       21.08       7.74        
H           87.63       21.31       9.58        
H           86.9        18.36       17.37       
H           82.34       19.26       15.58       
H           88.71       20.47       14.7        
H           88.45       19.96       16.39       
H           87.5808     21.36623    15.53403    
H           86.58       17.37       14.51       
H           88.25       17.68       15.14       
H           87.77107    17.92395    13.38073    
H           81.78       19.29       11.19       
H           81.69       19.72       9.48        
H           83.00754    18.71358    10.15201    
H           81.46       21.93       11.74       
H           82.81       22.91       11.33       
H           81.65384    22.41938    10.11011    
H           85.6        17.25       19.4        
H           84.22       21.23       5.15        
S           82.25       18.06       18.46       
C           84.7        17.58       18.93       
C           83.46       17.42       19.55       
C           87.58       20.84       1.06        
C           86.26       21.08       1.48        
C           88.44       20.83       2.12        
N           85.23       21.23       0.7         
N           84.58       21.4        2.85        
O           84.18       21.43       1.57        
H           88.82       20.89       4.21        
H           89.53       20.8        1.91        
C           88.01       21.01       3.47        
C           85.85       21.17       2.85        
C           86.72       21.11       3.93        
C           93.97       22.65       -13.97      
C           92.79       23.22       -13.57      
S           94.67       21.73       -12.69      
C           90.28       22.16       -8.12       
C           91.46       21.39       -8.4        
C           92.18       20.7        -7.41       
C           91.7        20.66       -6.15       
C           90.44       21.25       -5.97       
C           89.79       22.17       -6.86       
C           92.27       20.09       -4.82       
C           91.06       20.13       -3.93       
C           90.14       20.99       -4.56       
C           89.77       22.92       -9.33       
C           90.85       22.55       -10.41      
C           91.86       21.79       -9.76       
C           90.88       19.73       -2.61       
C           89.69       20.17       -1.93       
C           88.81       21.06       -2.62       
C           89.06       21.43       -3.91       
C           90.98       22.99       -11.72      
C           92.25       22.73       -12.34      
C           93.26       22.01       -11.66      
C           93.02       21.47       -10.4       
C           93.51       20.93       -4.3        
C           92.65       18.62       -5.13       
C           89.6        24.48       -8.94       
C           88.51       22.31       -9.9        
H           88.77       22.54       -6.69       
H           93.2        20.5        -7.62       
H           90.25       23.65       -12.13      
H           93.76       20.88       -9.86       
H           91.53       18.99       -2.1        
H           88.42       22.09       -4.44       
H           94.36       20.48       -4.84       
H           93.35       21.98       -4.7        
H           93.71627    20.84465    -3.2331     
H           93.59       18.61       -5.64       
H           92.83       18.07       -4.23       
H           91.8494     18.06244    -5.61608    
H           88.09       22.9        -10.76      
H           88.86       21.33       -10.22      
H           87.65388    22.19191    -9.23577    
H           88.59       24.61       -9.0        
H           89.9        24.65       -7.92       
H           90.13231    25.15617    -9.60898    
H           89.79       19.24       0.06        
H           92.16       23.94       -14.12      
S           87.61       21.72       -1.56       
C           89.24       19.94       -0.6        
C           88.11       20.64       -0.25       
C           96.17       23.11       -17.73      
C           95.05       23.96       -17.4       
C           96.58       22.34       -16.66      
N           94.53       24.96       -18.14      
N           93.29       24.61       -16.27      
O           93.39       25.34       -17.42      
H           96.28       21.41       -14.78      
H           97.53       21.71       -16.77      
C           95.82       22.09       -15.47      
C           94.28       23.78       -16.22      
C           94.7        22.83       -15.18      
C           106.15      23.09       -31.01      
C           106.05      21.95       -30.19      
S           104.88      24.16       -30.74      
C           102.0       21.8        -25.62      
C           101.9       22.9        -26.47      
C           101.09      23.97       -26.16      
C           100.37      23.9        -24.97      
C           100.4       22.71       -24.18      
C           101.21      21.64       -24.47      
C           99.3        24.86       -24.45      
C           98.75       24.06       -23.23      
C           99.54       22.91       -23.06      
C           103.08      20.88       -26.08      
C           103.42      21.44       -27.48      
C           102.81      22.74       -27.59      
C           97.87       24.52       -22.28      
C           97.8        23.8        -21.1       
C           98.55       22.63       -20.93      
C           99.44       22.15       -21.91      
C           104.45      21.09       -28.35      
C           104.85      21.96       -29.41      
C           104.14      23.17       -29.53      
C           103.14      23.61       -28.67      
C           98.18       25.08       -25.54      
C           100.02      26.17       -24.09      
C           102.6       19.43       -26.36      
C           104.41      20.96       -25.3       
H           101.16      20.71       -23.89      
H           101.04      24.89       -26.82      
H           105.02      20.16       -28.24      
H           102.78      24.61       -28.76      
H           97.22       25.38       -22.36      
H           99.99       21.29       -21.74      
H           98.66       25.71       -26.35      
H           97.9        24.13       -25.98      
H           97.29767    25.64213    -25.23403   
H           100.6       26.38       -24.96      
H           99.41       26.95       -23.7       
H           100.77913   26.05432    -23.31641   
H           104.92      20.0        -25.22      
H           105.06      21.66       -25.79      
H           104.31663   21.41964    -24.31607   
H           102.23      18.88       -25.5       
H           103.52      18.85       -26.57      
H           101.78978   19.35182    -27.08493   
H           96.39       24.88       -19.98      
H           106.83      21.26       -30.11      
S           98.2        21.9        -19.37      
C           97.01       24.07       -19.98      
C           97.07       23.18       -18.95      
C           109.57      25.09       -32.9       
C           109.71      23.93       -32.04      
C           108.28      25.41       -33.11      
N           110.9       23.33       -31.77      
N           109.13      22.0        -31.09      
O           110.47      22.16       -31.19      
H           106.28      25.2        -32.59      
H           108.03      26.31       -33.66      
C           107.18      24.79       -32.47      
C           108.62      23.14       -31.62      
C           107.28      23.59       -31.78      
C           121.35      34.98       -39.23      
C           120.05      35.01       -39.64      
S           121.6       33.99       -37.84      
C           115.7       31.73       -37.01      
C           116.98      31.64       -36.43      
C           117.16      30.76       -35.28      
C           116.13      29.94       -34.96      
C           114.87      30.03       -35.58      
C           114.64      30.98       -36.56      
C           116.17      28.86       -33.83      
C           114.79      28.27       -34.02      
C           114.03      29.02       -34.98      
C           115.67      32.84       -38.03      
C           117.17      33.2        -38.12      
C           117.88      32.6        -37.08      
C           114.22      27.22       -33.36      
C           112.85      26.93       -33.56      
C           112.18      27.64       -34.52      
C           112.71      28.66       -35.27      
C           117.82      33.97       -39.09      
C           119.18      34.18       -38.84      
C           119.84      33.63       -37.75      
C           119.19      32.83       -36.9       
C           116.43      29.46       -32.44      
C           117.19      27.77       -34.17      
C           114.81      33.99       -37.55      
C           115.04      32.16       -39.29      
H           113.65      31.11       -36.94      
H           118.14      30.6        -34.76      
H           117.4       34.38       -40.0       
H           119.72      32.41       -36.03      
H           114.74      26.6        -32.49      
H           112.11      29.12       -36.03      
H           117.44      29.81       -32.3       
H           116.3       28.74       -31.68      
H           115.74828   30.26908    -32.1778    
H           118.16      28.29       -34.2       
H           117.16      27.03       -33.34      
H           116.9985    27.33025    -35.1488    
H           113.94      32.17       -39.45      
H           115.5       32.75       -40.07      
H           115.4277    31.15783    -39.47288   
H           113.84      33.98       -38.05      
H           114.41      33.91       -36.53      
H           115.24583   34.98819    -37.59218   
H           112.48      25.34       -32.11      
H           119.67      35.58       -40.48      
S           110.47      27.11       -34.5       
C           111.99      25.94       -32.88      
C           110.71      25.98       -33.23      
C           124.96      36.69       -41.14      
C           123.75      36.58       -41.79      
C           124.95      36.23       -39.83      
N           123.48      36.92       -43.05      
N           121.62      36.04       -42.08      
O           122.16      36.59       -43.16      
H           123.84      35.6        -38.14      
H           125.86      36.26       -39.29      
C           123.75      35.76       -39.19      
C           122.61      36.03       -41.2       
C           122.54      35.58       -39.84      
C           139.38      43.44       -45.19      
C           139.41      42.55       -44.18      
S           138.25      42.97       -46.4       
C           134.44      39.15       -43.14      
C           134.57      39.61       -44.49      
C           133.46      39.5        -45.36      
C           132.3       39.08       -44.79      
C           132.15      38.64       -43.46      
C           133.3       38.51       -42.64      
C           130.95      38.83       -45.55      
C           129.99      38.48       -44.4       
C           130.72      38.47       -43.19      
C           135.8       39.33       -42.4       
C           136.7       39.97       -43.47      
C           135.89      40.21       -44.65      
C           128.68      38.07       -44.45      
C           128.01      37.76       -43.26      
C           128.73      37.8        -42.06      
C           130.07      38.21       -42.0       
C           137.91      40.7        -43.28      
C           138.4       41.56       -44.26      
C           137.67      41.61       -45.45      
C           136.44      40.94       -45.73      
C           131.33      37.64       -46.53      
C           130.55      40.12       -46.28      
C           136.21      37.94       -41.98      
C           135.6       40.28       -41.19      
H           133.25      38.21       -41.63      
H           133.47      39.82       -46.41      
H           138.4       40.69       -42.34      
H           135.95      41.09       -46.71      
H           128.1       38.07       -45.37      
H           130.57      38.23       -41.07      
H           131.97      37.93       -47.32      
H           131.88      36.98       -45.85      
H           130.44736   37.0796     -46.83822   
H           131.29      40.47       -46.98      
H           129.73      39.99       -47.0       
H           130.31788   40.96144    -45.62716   
H           135.23      39.72       -40.37      
H           136.49      40.85       -40.84      
H           134.87223   41.05723    -41.42317   
H           135.83      37.6        -41.05      
H           135.81      37.3        -42.75      
H           137.28262   37.74821    -42.00841   
H           125.91      37.37       -43.86      
H           140.03      42.77       -43.29      
S           127.61      37.49       -40.68      
C           126.57      37.48       -43.02      
C           126.22      37.18       -41.75      
C           141.37      47.56       -45.43      
C           140.67      46.96       -46.48      
C           141.34      46.7        -44.37      
N           140.4       47.54       -47.58      
N           139.35      45.55       -47.53      
O           139.47      46.76       -48.14      
H           140.89      44.89       -43.28      
H           141.78      47.08       -43.42      
C           140.78      45.39       -44.23      
C           139.98      45.67       -46.41      
C           140.13      44.79       -45.28      
C           151.4       60.94       -45.28      
C           151.52      59.88       -44.41      
S           149.88      60.86       -46.13      
C           147.57      55.23       -44.21      
C           147.32      56.22       -45.16      
C           146.29      56.01       -46.09      
C           145.57      54.82       -46.02      
C           145.89      53.77       -45.16      
C           146.88      54.01       -44.18      
C           144.6       54.34       -47.07      
C           144.14      53.0        -46.53      
C           145.01      52.65       -45.47      
C           148.72      55.63       -43.22      
C           149.22      56.9        -43.92      
C           148.29      57.28       -44.95      
C           143.11      52.14       -46.88      
C           142.98      50.94       -46.17      
C           143.8       50.65       -45.07      
C           144.92      51.37       -44.79      
C           150.31      57.69       -43.61      
C           150.39      58.9        -44.36      
C           149.44      59.33       -45.35      
C           148.28      58.51       -45.53      
C           145.27      54.15       -48.52      
C           143.43      55.37       -47.1       
C           149.83      54.53       -43.25      
C           148.3       55.97       -41.77      
H           147.13      53.24       -43.52      
H           146.07      56.74       -46.78      
H           151.18      57.46       -43.03      
H           147.58      58.73       -46.35      
H           142.51      52.22       -47.81      
H           145.6       51.18       -43.97      
H           145.7       55.11       -48.94      
H           146.14      53.49       -48.51      
H           144.62523   53.71322    -49.28263   
H           143.71      56.28       -47.61      
H           142.57      55.06       -47.7       
H           143.05658   55.58841    -46.09952   
H           148.68      55.26       -41.03      
H           148.63      56.97       -41.56      
H           147.23574   56.13652    -41.60348   
H           149.42      53.62       -42.89      
H           150.63      54.73       -42.46      
H           150.31036   54.38661    -44.21788   
H           141.31      49.95       -47.05      
H           152.34      59.83       -43.76      
S           143.33      49.12       -44.25      
C           142.05      49.87       -46.28      
C           142.03      48.86       -45.35      
C           153.99      64.4        -46.32      
C           154.11      63.63       -45.12      
C           153.1       63.77       -47.11      
N           155.01      63.79       -44.19      
N           153.63      62.18       -43.46      
O           154.69      62.97       -43.17      
H           151.53      62.43       -47.51      
H           152.94      64.18       -48.22      
C           152.19      62.69       -46.71      
C           153.29      62.54       -44.69      
C           152.21      62.09       -45.49      
C           163.6       73.99       -55.84      
C           162.3       73.75       -56.05      
S           164.19      73.31       -54.34      
C           158.83      70.97       -51.95      
C           160.17      71.03       -51.52      
C           160.68      70.41       -50.33      
C           159.71      69.66       -49.55      
C           158.39      69.62       -49.98      
C           157.91      70.33       -51.13      
C           159.96      68.75       -48.28      
C           158.58      68.11       -48.1       
C           157.68      68.7        -49.05      
C           158.61      71.55       -53.36      
C           159.95      72.11       -53.66      
C           160.87      71.81       -52.57      
C           158.14      67.09       -47.17      
C           156.81      66.64       -47.31      
C           155.94      67.15       -48.25      
C           156.33      68.29       -49.09      
C           160.34      72.79       -54.79      
C           161.69      73.13       -54.94      
C           162.56      72.89       -53.82      
C           162.18      72.17       -52.69      
C           160.24      69.79       -47.16      
C           161.02      67.59       -48.45      
C           157.5       72.64       -53.33      
C           158.18      70.49       -54.43      
H           156.85      70.24       -51.43      
H           161.82      70.39       -50.08      
H           159.68      73.06       -55.63      
H           162.96      71.91       -51.91      
H           158.8       66.58       -46.47      
H           155.61      68.74       -49.78      
H           161.32      70.04       -47.21      
H           159.8       70.76       -47.49      
H           159.86007   69.4945     -46.18203   
H           162.03      67.98       -48.76      
H           161.25      67.04       -47.55      
H           160.70272   66.97708    -49.29366   
H           157.26      70.59       -55.02      
H           158.96      70.48       -55.19      
H           158.09534   69.45289    -54.10546   
H           156.55      72.14       -53.14      
H           157.39      73.02       -54.38      
H           157.75681   73.39615    -52.58812   
H           156.62      65.06       -45.85      
H           161.87      74.09       -56.98      
S           154.36      66.36       -48.2       
C           156.18      65.57       -46.65      
C           154.85      65.34       -46.91      
C           166.8       75.38       -58.61      
C           165.67      74.62       -59.12      
C           166.72      75.66       -57.31      
N           165.42      74.21       -60.35      
N           163.79      73.48       -58.97      
O           164.22      73.47       -60.29      
H           165.82      75.43       -55.4       
H           167.44      76.34       -56.9       
C           165.66      75.17       -56.43      
C           164.56      74.23       -58.26      
C           164.59      74.47       -56.83      
C           181.69      75.59       -64.95      
C           181.49      75.91       -63.65      
S           180.32      75.86       -66.04      
C           175.88      76.9        -61.67      
C           175.98      76.74       -63.08      
C           174.87      76.63       -63.92      
C           173.65      76.69       -63.32      
C           173.57      76.84       -61.93      
C           174.68      76.96       -61.11      
C           172.24      76.63       -63.98      
C           171.38      76.69       -62.7       
C           172.13      76.87       -61.58      
C           177.29      76.91       -61.02      
C           178.15      76.55       -62.19      
C           177.4       76.65       -63.39      
C           169.98      76.43       -62.55      
C           169.41      76.2        -61.24      
C           170.21      76.51       -60.2       
C           171.58      76.76       -60.3       
C           179.5       76.38       -62.23      
C           180.12      76.16       -63.45      
C           179.36      76.24       -64.67      
C           178.02      76.65       -64.64      
C           172.09      75.27       -64.69      
C           171.94      77.92       -64.72      
C           177.52      75.87       -59.95      
C           177.77      78.32       -60.56      
H           174.61      76.84       -60.04      
H           175.0       76.43       -65.0       
H           180.18      76.53       -61.37      
H           177.47      76.66       -65.57      
H           169.37      76.27       -63.49      
H           172.18      77.02       -59.42      
H           172.65      75.24       -65.62      
H           171.04      75.32       -64.99      
H           172.30453   74.43406    -64.02421   
H           171.93      78.78       -64.1       
H           170.95      77.87       -65.11      
H           172.55132   78.05051    -65.61295   
H           178.75      78.38       -60.18      
H           177.86      78.84       -61.46      
H           177.16698   78.77577    -59.77467   
H           176.95      76.03       -59.05      
H           178.59      75.96       -59.79      
H           177.29946   74.84817    -60.25875   
H           167.23      75.77       -61.5       
H           182.27      75.8        -62.85      
S           169.38      76.24       -58.63      
C           168.05      75.86       -60.78      
C           167.89      75.77       -59.44      
C           185.42      74.42       -67.04      
C           185.52      74.88       -65.65      
C           184.2       74.38       -67.57      
N           186.55      75.15       -64.93      
N           184.62      75.46       -63.64      
O           186.01      75.47       -63.64      
H           182.06      74.57       -67.36      
H           184.1       74.01       -68.6       
C           183.02      74.73       -66.84      
C           184.29      75.12       -64.89      
C           183.02      75.18       -65.53      
C           195.39      77.3        -78.63      
C           194.36      76.41       -78.85      
S           195.95      77.25       -77.01      
C           191.82      73.25       -74.29      
C           192.96      74.06       -74.01      
C           193.23      74.47       -72.73      
C           192.33      74.3        -71.76      
C           191.18      73.6        -72.05      
C           191.02      72.91       -73.26      
C           192.21      75.0        -70.43      
C           190.86      74.54       -69.89      
C           190.26      73.73       -70.89      
C           191.58      73.32       -75.82      
C           192.64      74.3        -76.33      
C           193.52      74.62       -75.26      
C           190.2       74.75       -68.72      
C           188.85      74.38       -68.58      
C           188.3       73.63       -69.59      
C           188.99      73.25       -70.76      
C           192.99      74.73       -77.6       
C           194.07      75.56       -77.76      
C           194.8       76.02       -76.59      
C           194.63      75.46       -75.36      
C           192.28      76.46       -70.8       
C           193.37      74.76       -69.43      
C           190.19      73.94       -76.14      
C           191.63      71.97       -76.64      
H           190.07      72.34       -73.41      
H           194.17      75.07       -72.55      
H           192.34      74.62       -78.52      
H           195.18      75.83       -74.5       
H           190.66      75.4        -68.02      
H           188.57      72.67       -71.55      
H           193.27      76.8        -71.01      
H           191.72      76.52       -71.68      
H           191.78811   77.11826    -70.08387   
H           194.37      74.66       -69.9       
H           193.3       75.38       -68.59      
H           193.23412   73.74445    -69.05811   
H           190.88      72.05       -77.45      
H           192.64      71.82       -76.95      
H           191.45527   71.08239    -76.03195   
H           189.37      73.42       -75.68      
H           189.9       73.91       -77.15      
H           190.16898   74.99124    -75.85266   
H           188.26      75.32       -66.74      
H           193.79      76.39       -79.77      
S           186.64      73.22       -69.17      
C           187.91      74.7        -67.58      
C           186.68      74.26       -67.8       
C           196.67      80.69       -81.18      
C           195.87      79.58       -81.62      
C           197.2       80.48       -79.89      
N           195.3       79.4        -82.8       
N           195.0       77.55       -81.66      
O           194.83      78.12       -82.83      
H           196.97      79.43       -78.02      
H           197.96      81.15       -79.48      
C           196.71      79.4        -79.03      
C           195.65      78.43       -80.83      
C           195.9       78.36       -79.45      
H           78.5        9.44        39.64       
H           196.53      81.71       -81.59      
