612

C           93.67       41.01       34.67       
C           92.65       40.44       35.29       
S           93.15       42.6        33.99       
C           86.83       42.45       35.42       
C           87.68       43.36       34.71       
C           87.26       44.51       34.11       
C           85.89       44.89       34.34       
C           85.08       44.0        35.09       
C           85.49       42.82       35.66       
C           84.99       45.9        33.6        
C           83.58       45.43       34.03       
C           83.68       44.42       35.01       
C           87.51       41.09       35.73       
C           88.93       41.41       35.26       
C           89.05       42.73       34.64       
C           82.34       45.95       33.7        
C           81.21       45.34       34.23       
C           81.33       44.4        35.27       
C           82.59       43.96       35.67       
C           90.05       40.66       35.53       
C           91.38       41.13       35.13       
C           91.43       42.36       34.38       
C           90.31       43.11       34.09       
C           85.12       45.75       32.08       
C           85.09       47.34       34.12       
C           86.84       39.96       34.96       
C           87.52       40.9        37.28       
H           84.78       42.12       36.19       
H           87.92       45.15       33.59       
H           89.97       39.68       35.98       
H           90.42       44.13       33.71       
H           82.17       46.71       32.95       
H           82.7        43.33       36.61       
H           86.15       45.9        31.82       
H           84.56       46.52       31.61       
H           84.81209    44.76027    31.74276    
H           84.67       47.42       35.1        
H           84.5        47.92       33.51       
H           86.12536    47.6733     34.19092    
H           86.48       40.69       37.62       
H           88.17       40.14       37.59       
H           87.84408    41.77142    37.84894    
H           85.8        39.71       35.25       
H           87.48       39.11       35.26       
H           86.9588     40.08579    33.88382    
H           79.52       46.42       33.37       
H           92.75       39.46       35.71       
S           79.76       43.92       35.91       
C           79.81       45.67       34.05       
C           78.89       44.94       34.78       
C           97.86       39.65       33.97       
C           97.08       39.17       35.04       
C           97.17       40.64       33.21       
N           97.38       38.31       35.92       
N           95.24       38.89       36.26       
O           96.28       38.13       36.69       
H           95.39       41.87       32.8        
H           97.75       41.23       32.47       
C           95.81       41.1        33.48       
C           95.7        39.55       35.21       
C           95.03       40.59       34.43       
C           113.32      43.57       31.17       
C           112.36      43.64       30.21       
S           112.82      42.49       32.41       
C           106.9       41.21       30.72       
C           107.82      40.79       31.71       
C           107.52      40.05       32.81       
C           106.15      39.68       32.91       
C           105.22      40.02       31.93       
C           105.54      40.74       30.76       
C           105.37      39.05       34.09       
C           103.94      39.03       33.64       
C           103.86      39.61       32.36       
C           107.57      41.92       29.54       
C           109.02      41.98       30.05       
C           109.12      41.38       31.39       
C           102.87      38.61       34.38       
C           101.56      38.95       33.81       
C           101.51      39.39       32.43       
C           102.67      39.58       31.63       
C           110.06      42.69       29.53       
C           111.21      42.89       30.35       
C           111.35      42.22       31.58       
C           110.34      41.42       32.08       
C           105.52      39.79       35.44       
C           105.74      37.56       34.3        
C           106.88      43.33       29.33       
C           107.38      41.08       28.23       
H           104.78      40.97       30.07       
H           108.26      39.73       33.56       
H           110.05      43.03       28.54       
H           110.42      40.96       33.03       
H           102.95      38.31       35.44       
H           102.61      39.95       30.6        
H           106.54      39.95       35.72       
H           105.23      39.29       36.37       
H           105.05567   40.77329    35.36489    
H           105.35      36.97       33.43       
H           105.21      37.26       35.18       
H           106.80683   37.34228    34.3508     
H           106.31      40.82       28.07       
H           107.68      41.53       27.3        
H           108.01885   40.1971     28.25153    
H           105.76      43.2        29.26       
H           107.04      44.08       30.21       
H           107.13249   43.86383    28.41383    
H           100.33      38.98       35.55       
H           112.58      44.37       29.42       
S           99.84       39.78       32.07       
C           100.27      39.1        34.48       
C           99.24       39.41       33.66       
C           116.59      46.5        30.88       
C           115.44      46.73       31.71       
C           116.63      45.28       30.31       
N           115.09      47.78       32.41       
N           113.58      46.27       32.79       
O           113.9       47.56       32.96       
H           115.73      43.38       29.9        
H           117.42      44.97       29.6        
C           115.62      44.28       30.47       
C           114.45      45.69       31.98       
C           114.48      44.44       31.31       
C           128.23      58.0        31.12       
C           128.46      56.68       30.79       
S           126.55      58.43       30.71       
C           124.19      52.54       29.9        
C           123.73      53.91       29.86       
C           122.39      54.19       29.94       
C           121.48      53.16       29.97       
C           121.97      51.8        29.95       
C           123.32      51.46       29.88       
C           119.92      53.26       30.12       
C           119.52      51.75       30.11       
C           120.77      50.98       30.03       
C           125.73      52.49       29.99       
C           126.01      53.98       29.93       
C           124.89      54.79       30.01       
C           118.34      51.16       30.29       
C           118.28      49.76       30.31       
C           119.51      49.0        30.28       
C           120.78      49.58       30.17       
C           127.24      54.59       30.07       
C           127.3       55.95       30.36       
C           126.13      56.75       30.33       
C           124.86      56.17       30.1        
C           119.33      54.04       28.93       
C           119.5       53.81       31.53       
C           126.19      51.7        28.74       
C           126.27      51.83       31.25       
H           123.69      50.46       29.97       
H           122.01      55.21       30.14       
H           128.16      54.06       30.12       
H           123.92      56.7        30.22       
H           117.44      51.68       30.44       
H           121.72      49.05       30.06       
H           119.92      54.97       28.82       
H           119.49      53.38       28.05       
H           118.25236   54.19597    28.97963    
H           119.64      54.91       31.6        
H           118.39      53.68       31.81       
H           120.10607   53.38218    32.32859    
H           126.15      50.78       31.2        
H           127.29      51.98       31.25       
H           125.75338   52.21397    32.12964    
H           127.27      51.43       28.91       
H           125.77      50.71       28.74       
H           126.02262   52.22307    27.79847    
H           116.16      49.29       30.67       
H           129.45      56.28       30.95       
S           119.22      47.29       30.43       
C           117.16      48.91       30.51       
C           117.5       47.59       30.58       
C           130.65      60.94       33.24       
C           131.17      59.69       33.08       
C           129.54      61.18       32.6        
N           132.13      59.14       33.71       
N           131.05      57.56       32.55       
O           132.11      57.84       33.33       
H           127.83      60.65       31.56       
H           129.14      62.2        32.55       
C           128.77      60.26       31.88       
C           130.48      58.71       32.3        
C           129.16      59.01       31.72       
C           140.68      73.82       35.74       
C           139.38      74.02       35.56       
S           141.04      72.24       36.35       
C           135.48      69.3        35.28       
C           136.71      69.03       35.92       
C           136.98      67.73       36.39       
C           135.96      66.75       36.22       
C           134.75      67.07       35.59       
C           134.47      68.33       35.15       
C           136.07      65.25       36.59       
C           134.67      64.79       36.06       
C           133.97      65.85       35.41       
C           135.49      70.75       34.76       
C           136.77      71.36       35.38       
C           137.62      70.3        35.89       
C           134.05      63.48       36.07       
C           132.9       63.25       35.27       
C           132.32      64.34       34.66       
C           132.78      65.66       34.76       
C           137.28      72.6        35.34       
C           138.59      72.84       35.67       
C           139.37      71.8        36.23       
C           138.89      70.52       36.34       
C           136.35      65.08       38.09       
C           137.2       64.64       35.8        
C           134.25      71.57       35.09       
C           135.74      70.78       33.21       
H           133.53      68.61       34.74       
H           137.93      67.54       36.93       
H           136.75      73.42       34.91       
H           139.47      69.68       36.7        
H           134.35      62.65       36.71       
H           132.33      66.48       34.21       
H           137.37      64.7        38.32       
H           136.11      66.0        38.64       
H           135.7683    64.26703    38.52452    
H           138.1       65.21       35.81       
H           137.47      63.71       36.22       
H           136.85579   64.42659    34.78803    
H           135.84      71.85       32.96       
H           136.68      70.26       33.04       
H           134.99727   70.26081    32.60428    
H           133.4       71.15       34.6        
H           134.22      72.6        34.7        
H           134.0499    71.74151    36.14766    
H           132.7       61.09       35.38       
H           139.05      74.94       35.08       
S           131.14      63.73       33.5        
C           132.27      62.01       34.95       
C           131.27      62.06       34.0        
C           144.23      76.46       34.99       
C           142.93      76.71       34.36       
C           144.28      75.35       35.76       
N           142.55      77.67       33.6        
N           140.72      76.48       34.06       
O           141.25      77.54       33.33       
H           143.3       73.66       36.63       
H           145.16      75.02       36.24       
C           143.12      74.51       35.99       
C           141.74      75.87       34.67       
C           141.83      74.71       35.46       
C           157.25      83.44       28.09       
C           157.39      82.44       29.01       
S           155.73      84.28       28.23       
C           152.95      80.41       32.62       
C           152.62      81.56       31.86       
C           151.41      82.16       32.04       
C           150.44      81.54       32.83       
C           150.7       80.31       33.47       
C           152.01      79.7        33.4        
C           148.96      81.93       32.92       
C           148.35      80.8        33.73       
C           149.39      79.8        34.01       
C           154.43      80.1        32.46       
C           154.8       81.16       31.38       
C           153.73      81.99       31.03       
C           147.03      80.48       33.96       
C           146.74      79.18       34.38       
C           147.75      78.26       34.55       
C           149.14      78.52       34.54       
C           156.08      81.37       30.81       
C           156.19      82.33       29.79       
C           155.14      83.14       29.47       
C           153.87      83.03       30.08       
C           148.3       82.04       31.51       
C           148.86      83.32       33.7        
C           154.45      78.58       32.05       
C           155.29      80.3        33.7        
H           152.28      78.78       33.93       
H           151.09      83.14       31.54       
H           156.87      80.66       31.06       
H           153.04      83.63       29.86       
H           146.24      81.23       33.8        
H           149.85      77.69       34.64       
H           148.77      82.82       30.88       
H           147.32      82.45       31.72       
H           148.38673   81.12932    30.91734    
H           149.24      84.06       32.91       
H           147.86      83.55       33.93       
H           149.3642    83.32       34.66638    
H           155.29      79.39       34.27       
H           156.33      80.69       33.59       
H           154.87853   81.08748    34.3314     
H           155.39      78.16       32.38       
H           153.68      78.08       32.59       
H           154.21543   78.47338    30.99089    
H           144.53      79.23       34.3        
H           158.2       81.72       29.09       
S           147.02      76.71       34.88       
C           145.4       78.67       34.48       
C           145.41      77.39       34.88       
C           159.43      85.12       24.67       
C           160.05      84.17       25.64       
C           158.16      85.28       24.96       
N           161.37      83.77       25.64       
N           160.23      83.13       27.6        
O           161.42      83.16       26.91       
H           156.38      84.99       26.06       
H           157.49      85.76       24.26       
C           157.43      84.72       26.09       
C           159.39      83.77       26.86       
C           158.0       83.97       27.01       
C           162.63      90.02       9.37        
C           161.43      90.07       10.03       
S           163.92      89.67       10.49       
C           160.97      89.41       16.09       
C           162.3       89.26       15.69       
C           163.28      88.75       16.56       
C           162.88      88.33       17.77       
C           161.57      88.56       18.17       
C           160.65      89.14       17.37       
C           163.73      87.52       18.77       
C           162.67      87.41       19.9        
C           161.4       87.92       19.45       
C           159.94      89.92       14.97       
C           160.92      89.78       13.78       
C           162.26      89.59       14.25       
C           162.71      86.72       21.12       
C           161.5       86.51       21.86       
C           160.28      87.17       21.42       
C           160.21      87.77       20.2        
C           160.61      89.82       12.49       
C           161.56      89.84       11.49       
C           162.84      89.58       11.9        
C           163.23      89.51       13.23       
C           164.93      88.45       19.16       
C           164.19      86.18       18.23       
C           159.37      91.38       15.32       
C           158.77      88.92       14.81       
H           159.57      89.21       17.65       
H           164.34      88.61       16.25       
H           159.55      90.01       12.28       
H           164.21      89.26       13.53       
H           163.59      86.13       21.37       
H           159.33      88.29       19.88       
H           165.59      88.59       18.31       
H           164.54      89.41       19.41       
H           165.43429   88.23805    20.1028     
H           164.96      86.36       17.52       
H           164.55      85.55       19.0        
H           163.43747   85.6691     17.62935    
H           158.01      89.13       15.57       
H           158.4       89.14       13.83       
H           159.08052   87.88273    14.93553    
H           158.28      91.29       15.2        
H           159.54      91.51       16.42       
H           159.78407   92.22217    14.76557    
H           162.13      85.15       23.58       
H           160.53      90.37       9.53        
S           159.01      86.76       22.59       
C           161.32      85.76       23.09       
C           160.03      85.77       23.49       
C           163.77      91.02       5.17        
C           162.44      91.13       5.63        
C           164.63      90.74       6.19        
N           161.38      91.63       4.98        
N           160.79      90.91       7.05        
O           160.34      91.46       5.84        
H           165.07      89.93       8.15        
H           165.69      90.72       6.03        
C           164.31      90.28       7.49        
C           162.07      90.68       6.93        
C           163.01      90.25       7.96        
C           169.66      96.9        -9.26       
C           170.26      96.93       -8.04       
S           168.25      95.85       -9.2        
C           167.82      94.63       -2.91       
C           167.06      94.4        -4.09       
C           165.97      93.57       -4.04       
C           165.61      92.98       -2.78       
C           166.31      93.31       -1.68       
C           167.38      94.17       -1.71       
C           164.41      92.05       -2.37       
C           164.49      92.06       -0.86       
C           165.62      92.79       -0.48       
C           169.04      95.52       -3.17       
C           169.03      95.63       -4.68       
C           167.81      95.1        -5.19       
C           163.64      91.45       0.14        
C           164.1       91.64       1.43        
C           165.29      92.39       1.76        
C           166.05      92.93       0.83        
C           169.93      96.12       -5.59       
C           169.59      96.18       -6.99       
C           168.4       95.61       -7.48       
C           167.47      95.12       -6.54       
C           164.75      90.63       -2.85       
C           163.0       92.52       -2.64       
C           170.39      94.76       -2.75       
C           168.97      96.9        -2.58       
H           168.0       94.35       -0.84       
H           165.56      93.23       -4.95       
H           170.89      96.45       -5.13       
H           166.45      94.73       -6.78       
H           162.87      90.76       -0.06       
H           166.81      93.64       1.13        
H           163.8       90.09       -2.97       
H           165.06      90.81       -3.91       
H           165.57286   90.1103     -2.35917    
H           162.93      92.41       -3.71       
H           162.36      91.81       -2.16       
H           162.70284   93.53176    -2.36407    
H           169.46      96.8        -1.57       
H           169.53      97.53       -3.21       
H           167.94544   97.27193    -2.58702    
H           170.41      94.59       -1.72       
H           171.27      95.34       -3.07       
H           170.48993   93.78215    -3.22108    
H           162.51      90.6        2.57        
H           171.07      97.51       -7.78       
S           165.51      92.35       3.46        
C           163.43      91.12       2.62        
C           164.15      91.29       3.8         
C           170.67      99.31       -12.92      
C           171.67      99.11       -11.87      
C           169.54      98.54       -12.73      
N           172.85      99.57       -11.75      
N           172.4       98.36       -9.85       
O           173.24      99.29       -10.46      
H           168.32      97.25       -11.58      
H           168.84      98.53       -13.48      
C           169.32      97.73       -11.6       
C           171.32      98.33       -10.68      
C           170.1       97.6        -10.47      
C           173.69      104.87      -27.77      
C           172.44      104.59      -27.45      
S           174.64      104.98      -26.24      
C           170.47      103.7       -21.72      
C           171.74      104.39      -21.79      
C           172.6       104.67      -20.73      
C           172.32      103.95      -19.63      
C           171.1       103.26      -19.51      
C           170.11      103.08      -20.55      
C           173.27      103.74      -18.48      
C           172.34      102.96      -17.57      
C           171.11      102.63      -18.24      
C           169.78      103.79      -23.06      
C           170.87      104.36      -23.96      
C           172.06      104.54      -23.21      
C           172.7       102.46      -16.31      
C           171.75      101.62      -15.67      
C           170.53      101.31      -16.3       
C           170.21      101.83      -17.53      
C           170.88      104.43      -25.35      
C           172.12      104.68      -26.0       
C           173.23      104.85      -25.21      
C           173.27      104.83      -23.83      
C           173.65      105.07      -17.89      
C           174.54      102.9       -18.79      
C           168.6       104.78      -23.1       
C           169.31      102.39      -23.53      
H           169.18      102.57      -20.43      
H           173.6       105.25      -20.83      
H           169.96      104.25      -25.95      
H           174.21      104.96      -23.24      
H           173.62      102.74      -15.7       
H           169.23      101.64      -17.94      
H           173.86      105.75      -18.68      
H           172.72      105.43      -17.53      
H           174.45652   105.07733   -17.1568    
H           175.15      103.63      -19.37      
H           175.01      102.63      -17.84      
H           174.40012   102.08173   -19.49637   
H           168.36      102.08      -22.99      
H           169.02      102.48      -24.56      
H           170.12374   101.66825   -23.45924   
H           167.71      104.45      -22.56      
H           168.26      104.97      -24.11      
H           168.81386   105.74608   -22.64277   
H           172.64      101.18      -13.69      
H           171.62      104.4       -28.16      
S           169.57      100.26      -15.31      
C           171.87      100.94      -14.38      
C           170.83      100.17      -14.06      
C           175.58      105.14      -31.73      
C           176.24      105.54      -30.56      
C           174.36      104.54      -31.52      
N           177.48      106.01      -30.43      
N           176.57      105.79      -28.39      
O           177.62      106.25      -29.12      
H           172.81      103.81      -30.27      
H           173.8       104.11      -32.34      
C           173.75      104.38      -30.25      
C           175.71      105.31      -29.28      
C           174.38      104.83      -29.11      
C           178.87      108.25      -47.26      
C           178.23      107.09      -47.05      
S           179.76      108.83      -45.89      
C           177.83      104.62      -41.44      
C           178.84      105.63      -41.6       
C           179.63      106.15      -40.56      
C           179.29      105.75      -39.24      
C           178.14      104.9       -39.06      
C           177.47      104.36      -40.14      
C           179.62      106.48      -37.89      
C           178.78      105.68      -36.89      
C           177.78      105.0       -37.57      
C           177.13      104.27      -42.77      
C           177.78      105.33      -43.68      
C           178.73      106.14      -42.99      
C           178.79      105.9       -35.5       
C           177.66      105.52      -34.85      
C           176.66      104.78      -35.53      
C           176.69      104.57      -36.93      
C           177.54      105.59      -45.06      
C           178.34      106.57      -45.7       
C           179.23      107.42      -44.94      
C           179.41      107.21      -43.56      
C           179.31      107.93      -37.72      
C           181.09      106.21      -37.5       
C           175.59      104.55      -42.78      
C           177.58      102.91      -43.51      
H           176.58      103.85      -40.04      
H           180.46      106.72      -40.87      
H           176.78      105.07      -45.73      
H           179.97      107.98      -43.0       
H           179.55      106.37      -35.0       
H           175.84      104.05      -37.48      
H           179.82      108.39      -38.55      
H           179.86      108.24      -36.86      
H           178.26091   108.22375   -37.75497   
H           181.29      105.11      -37.5       
H           181.21      106.67      -36.53      
H           181.87971   106.66533   -38.09761   
H           177.61      103.12      -44.62      
H           178.59      102.64      -43.17      
H           176.9615    102.05784   -43.22824   
H           175.05      103.9       -42.11      
H           175.12      104.41      -43.85      
H           175.28417   105.55486   -42.48874   
H           177.77      106.46      -32.82      
H           177.49      106.62      -47.78      
S           175.42      104.43      -34.37      
C           177.35      105.75      -33.49      
C           176.24      105.18      -33.04      
C           179.6       110.77      -50.87      
C           179.23      109.41      -50.95      
C           179.54      111.19      -49.57      
N           179.04      108.66      -52.05      
N           178.69      107.3       -50.23      
O           178.71      107.36      -51.61      
H           179.27      110.81      -47.56      
H           179.46      112.24      -49.4       
C           179.35      110.28      -48.48      
C           179.02      108.51      -49.85      
C           179.02      108.98      -48.54      
C           178.59      124.68      -59.44      
C           177.66      123.71      -59.61      
S           179.91      124.17      -58.39      
C           178.79      117.96      -57.68      
C           179.78      118.88      -57.29      
C           180.8       118.55      -56.39      
C           180.89      117.24      -55.9       
C           179.72      116.39      -56.06      
C           178.72      116.77      -56.93      
C           181.81      116.81      -54.8       
C           181.15      115.4       -54.5       
C           179.97      115.23      -55.2       
C           177.68      118.63      -58.58      
C           178.07      120.08      -58.5       
C           179.42      120.19      -57.96      
C           181.6       114.43      -53.61      
C           180.7       113.41      -53.24      
C           179.45      113.28      -53.91      
C           179.16      114.11      -54.97      
C           177.5       121.13      -59.09      
C           178.15      122.41      -59.1       
C           179.42      122.5       -58.47      
C           179.98      121.39      -57.89      
C           181.52      117.79      -53.62      
C           183.3       116.6       -55.18      
C           176.25      118.37      -57.83      
C           177.7       118.02      -60.05      
H           177.98      116.08      -57.13      
H           181.58      119.29      -56.24      
H           176.51      121.02      -59.53      
H           180.96      121.52      -57.45      
H           182.61      114.49      -53.2       
H           178.28      113.91      -55.6       
H           182.16      118.68      -53.82      
H           180.51      118.04      -53.73      
H           181.76156   117.43476   -52.61823   
H           183.83      117.49      -55.27      
H           183.86      116.13      -54.32      
H           183.34995   116.0791    -56.13617   
H           177.0       118.61      -60.62      
H           178.65      118.08      -60.55      
H           177.47666   116.95373   -60.08602   
H           176.06      117.32      -57.78      
H           175.45      118.9       -58.46      
H           176.12593   118.78599   -56.83017   
H           181.68      112.52      -51.52      
H           176.67      123.78      -60.02      
S           178.57      111.95      -53.22      
C           180.82      112.48      -52.18      
C           179.75      111.69      -52.01      
C           178.05      128.99      -60.12      
C           176.95      128.04      -60.27      
C           179.25      128.4       -59.85      
N           175.79      128.3       -60.55      
N           175.92      126.04      -60.35      
O           175.15      127.12      -60.73      
H           180.35      126.61      -59.6       
H           180.11      129.09      -59.64      
C           179.37      126.97      -59.74      
C           177.09      126.65      -60.09      
C           178.38      126.12      -59.76      
H           77.86       44.84       34.41       
H           177.98      130.07      -60.24      
