612

C           109.17      13.38       34.11       
C           108.06      13.75       33.38       
S           109.65      11.72       33.62       
C           105.67      10.59       28.79       
C           106.7       9.9         29.36       
C           107.11      8.67        28.82       
C           106.47      8.24        27.68       
C           105.47      8.93        27.06       
C           105.11      10.16       27.6        
C           106.86      7.1         26.69       
C           105.66      6.98        25.81       
C           104.99      8.24        25.89       
C           105.35      11.87       29.58       
C           106.31      11.84       30.71       
C           107.14      10.71       30.55       
C           105.51      6.06        24.73       
C           104.49      6.39        23.85       
C           103.85      7.68        23.91       
C           104.07      8.59        24.93       
C           106.51      12.84       31.59       
C           107.59      12.75       32.45       
C           108.42      11.63       32.33       
C           108.16      10.56       31.43       
C           106.93      5.78        27.41       
C           108.07      7.27        25.8        
C           104.05      11.78       30.4        
C           105.58      13.09       28.68       
H           104.38      10.73       27.06       
H           107.84      8.07        29.31       
H           105.87      13.71       31.59       
H           108.83      9.74        31.41       
H           105.86      5.06        24.8        
H           103.59      9.5         25.01       
H           107.74      5.66        28.17       
H           107.06      4.97        26.75       
H           106.02517   5.5836      27.98516    
H           107.84      8.17        25.25       
H           108.22      6.4         25.15       
H           108.96936   7.51528     26.36489    
H           105.65      14.01       29.36       
H           106.59      13.03       28.22       
H           104.77414   13.30536    27.97835    
H           103.22      11.62       29.66       
H           103.59      12.58       30.95       
H           104.05716   10.9063     31.05169    
H           104.43      4.64        22.49       
H           107.53      14.64       33.49       
S           102.69      7.8         22.65       
C           104.02      5.64        22.73       
C           102.95      6.15        22.03       
C           111.39      16.12       36.8        
C           109.96      16.16       36.75       
C           111.96      15.07       36.1        
N           109.03      16.93       37.33       
N           108.05      15.49       35.86       
O           107.84      16.49       36.8        
H           111.75      13.27       34.77       
H           113.04      15.07       35.94       
C           111.18      14.1        35.33       
C           109.3       15.21       35.83       
C           109.84      14.18       35.13       
C           121.35      27.05       44.01       
C           121.87      25.84       43.65       
S           119.6       27.01       44.06       
C           118.3       21.22       41.73       
C           117.64      22.3        42.4        
C           116.24      22.44       42.43       
C           115.44      21.48       41.73       
C           116.06      20.47       40.96       
C           117.44      20.34       41.07       
C           113.92      21.58       41.46       
C           113.72      20.36       40.62       
C           114.98      19.72       40.32       
C           119.79      21.46       41.65       
C           119.91      22.82       42.38       
C           118.69      23.32       42.73       
C           112.59      19.85       40.07       
C           112.73      18.7        39.2        
C           113.98      18.17       38.87       
C           115.14      18.68       39.38       
C           121.03      23.49       42.81       
C           120.9       24.84       43.36       
C           119.61      25.34       43.53       
C           118.47      24.55       43.35       
C           113.58      22.76       40.48       
C           112.97      21.55       42.72       
C           120.22      21.72       40.13       
C           120.72      20.39       42.35       
H           117.91      19.55       40.6        
H           115.8       23.41       42.72       
H           122.05      23.19       42.59       
H           117.49      24.95       43.53       
H           111.66      20.3        40.24       
H           116.04      18.15       39.32       
H           113.41      23.58       41.14       
H           112.62      22.45       39.98       
H           114.34989   22.97386    39.73863    
H           113.2       20.52       43.12       
H           111.99      21.52       42.32       
H           113.13305   22.31561    43.47852    
H           121.73      20.7        42.1        
H           120.66      20.37       43.47       
H           120.70556   19.38673    41.92415    
H           121.16      21.16       40.01       
H           119.48      21.27       39.43       
H           120.29572   22.7663     39.83401    
H           110.62      18.03       38.67       
H           123.0       25.77       43.64       
S           113.82      16.75       37.92       
C           111.7       17.93       38.52       
C           112.12      16.97       37.71       
C           123.5       30.92       44.39       
C           123.94      29.93       43.46       
C           122.3       30.6        44.96       
N           125.04      29.98       42.71       
N           123.95      28.0        42.31       
O           125.07      28.77       42.05       
H           120.72      29.28       45.4        
H           121.81      31.32       45.63       
C           121.6       29.35       44.84       
C           123.23      28.71       43.21       
C           122.05      28.32       44.0        
C           128.45      46.04       48.55       
C           127.65      45.36       49.45       
S           129.1       45.14       47.2        
C           126.21      39.53       47.98       
C           127.44      40.02       47.42       
C           128.19      39.29       46.55       
C           127.68      37.96       46.27       
C           126.49      37.54       46.78       
C           125.75      38.3        47.59       
C           128.26      36.93       45.34       
C           127.22      35.78       45.44       
C           126.21      36.22       46.24       
C           125.65      40.57       49.03       
C           126.67      41.67       48.82       
C           127.49      41.44       47.7        
C           127.13      34.57       44.78       
C           125.97      33.74       44.99       
C           124.96      34.2        45.92       
C           125.07      35.43       46.56       
C           126.69      42.94       49.39       
C           127.43      44.0        48.92       
C           128.27      43.72       47.8        
C           128.18      42.55       47.11       
C           129.68      36.54       45.8        
C           128.31      37.39       43.92       
C           125.78      40.0        50.48       
C           124.24      41.07       48.66       
H           124.86      37.9        48.08       
H           128.94      39.75       45.85       
H           126.3       43.11       50.43       
H           128.92      42.34       46.35       
H           127.97      34.13       44.22       
H           124.37      35.72       47.35       
H           130.36      36.33       44.95       
H           130.02      37.46       46.31       
H           129.64451   35.75212    46.55239    
H           128.76      38.4        43.84       
H           128.88      36.69       43.34       
H           127.32648   37.53859    43.47423    
H           124.05      41.91       49.33       
H           124.28      41.48       47.6        
H           123.45498   40.32201    48.77109    
H           124.98      40.51       50.98       
H           125.54      38.93       50.4        
H           126.75585   40.15786    50.93923    
H           126.2       31.94       43.73       
H           127.25      45.73       50.4        
S           123.66      33.01       46.04       
C           125.58      32.49       44.39       
C           124.33      32.03       44.76       
C           129.51      50.4        48.48       
C           128.6       49.84       49.43       
C           129.92      49.48       47.57       
N           127.89      50.42       50.46       
N           127.68      48.09       50.58       
O           127.44      49.36       51.18       
H           129.85      47.44       46.69       
H           130.43      49.91       46.74       
C           129.55      48.05       47.57       
C           128.39      48.39       49.53       
C           128.83      47.45       48.57       
C           133.52      65.95       52.02       
C           132.23      65.6        51.71       
S           134.62      64.67       51.55       
C           130.7       60.14       49.4        
C           132.04      60.4        49.61       
C           132.95      59.36       49.54       
C           132.61      58.12       49.1        
C           131.22      57.87       48.95       
C           130.25      58.83       49.18       
C           133.42      56.8        49.09       
C           132.37      55.82       48.57       
C           131.05      56.42       48.64       
C           129.84      61.36       49.86       
C           130.99      62.37       50.19       
C           132.27      61.74       50.04       
C           132.45      54.42       48.46       
C           131.25      53.71       48.35       
C           130.03      54.28       48.36       
C           129.9       55.69       48.49       
C           130.8       63.61       50.77       
C           132.06      64.27       51.1        
C           133.29      63.61       51.01       
C           133.46      62.37       50.34       
C           133.84      56.41       50.53       
C           134.62      56.97       48.14       
C           128.83      61.19       51.03       
C           129.12      61.89       48.59       
H           129.22      58.62       49.04       
H           134.0       59.6        49.8        
H           129.84      64.09       50.79       
H           134.39      61.87       50.39       
H           133.41      53.94       48.58       
H           128.92      56.19       48.5        
H           134.45      55.49       50.4        
H           134.56      57.09       50.93       
H           133.03477   56.25902    51.24896    
H           135.25      57.77       48.41       
H           135.27      56.07       48.23       
H           134.40877   57.13752    47.08387    
H           128.12      61.51       48.44       
H           129.1       62.98       48.71       
H           129.6797    61.72705    47.66898    
H           128.0       60.54       50.72       
H           128.32      62.15       51.11       
H           129.23659   60.72634    51.92878    
H           131.97      51.62       48.46       
H           131.38      66.24       52.01       
S           128.72      53.07       48.35       
C           131.08      52.26       48.4        
C           129.9       51.8        48.52       
C           134.77      69.73       54.12       
C           133.61      69.63       53.19       
C           135.4       68.56       54.29       
N           132.8       70.57       52.75       
N           132.23      68.7        51.73       
O           131.99      70.01       51.83       
H           135.58      66.37       53.79       
H           136.11      68.43       55.16       
C           135.03      67.34       53.58       
C           133.27      68.47       52.46       
C           134.0       67.24       52.62       
C           144.28      82.88       52.46       
C           144.74      81.72       52.88       
S           142.55      82.86       52.28       
C           141.0       77.2        54.56       
C           140.41      78.25       53.9        
C           139.06      78.27       53.57       
C           138.38      77.1        53.78       
C           138.95      75.99       54.44       
C           140.26      76.05       54.85       
C           136.88      76.88       53.55       
C           136.71      75.45       54.06       
C           137.95      74.94       54.52       
C           142.57      77.4        54.74       
C           142.67      78.83       54.07       
C           141.39      79.34       53.71       
C           135.59      74.56       54.09       
C           135.67      73.26       54.56       
C           136.98      72.81       55.05       
C           138.08      73.66       55.02       
C           143.83      79.56       53.93       
C           143.7       80.85       53.34       
C           142.41      81.31       52.98       
C           141.23      80.63       53.17       
C           136.43      76.96       52.12       
C           136.09      77.91       54.4        
C           143.34      76.23       54.0        
C           143.11      77.53       56.22       
H           140.71      75.25       55.31       
H           138.61      79.21       53.13       
H           144.83      79.24       54.32       
H           140.28      81.07       52.83       
H           134.64      74.87       53.68       
H           139.04      73.38       55.48       
H           136.34      77.94       51.64       
H           135.37      76.66       52.09       
H           136.88498   76.29132    51.38928    
H           136.27      78.95       54.14       
H           135.05      77.61       54.33       
H           136.53469   77.96559    55.39361    
H           144.15      77.23       56.32       
H           143.2       78.55       56.49       
H           142.45439   77.02783    56.93141    
H           144.37      76.19       54.29       
H           142.99      75.34       54.47       
H           143.192     76.14255    52.92364    
H           133.71      72.41       54.14       
H           145.81      81.51       53.14       
S           136.93      71.09       55.17       
C           134.7       72.21       54.49       
C           135.24      70.96       54.63       
C           146.46      86.33       50.87       
C           147.12      85.41       51.79       
C           145.13      86.19       50.66       
N           148.32      85.32       52.28       
N           147.08      83.65       53.2        
O           148.32      84.28       53.16       
H           143.35      85.02       50.94       
H           144.59      86.91       49.99       
C           144.36      85.15       51.26       
C           146.33      84.37       52.44       
C           144.96      84.16       52.08       
C           151.5       88.09       35.87       
C           152.38      87.53       36.78       
S           150.34      89.15       36.66       
C           151.43      87.76       42.76       
C           150.63      88.69       41.91       
C           149.7       89.46       42.53       
C           149.42      89.19       43.86       
C           150.08      88.23       44.61       
C           151.14      87.55       44.11       
C           148.11      89.72       44.45       
C           148.29      89.07       45.82       
C           149.43      88.21       45.93       
C           152.52      87.15       41.95       
C           152.18      87.73       40.56       
C           151.09      88.6        40.53       
C           147.38      89.16       46.86       
C           147.65      88.38       47.97       
C           148.76      87.5        48.02       
C           149.75      87.52       47.08       
C           152.74      87.42       39.33       
C           152.15      87.88       38.16       
C           151.06      88.82       38.24       
C           150.55      89.21       39.4        
C           146.92      89.19       43.58       
C           148.17      91.23       44.67       
C           152.54      85.55       41.98       
C           153.79      87.72       42.61       
H           151.68      86.94       44.84       
H           149.07      90.17       42.01       
H           153.58      86.75       39.16       
H           149.77      89.96       39.51       
H           146.39      89.62       46.76       
H           150.55      86.78       47.08       
H           146.04      89.9        43.36       
H           147.31      89.04       42.59       
H           146.62123   88.18946    43.89267    
H           148.12      91.69       43.7        
H           147.18      91.55       44.98       
H           149.07059   91.54484    45.19717    
H           154.02      87.27       43.62       
H           154.67      87.54       42.0        
H           153.76871   88.79855    42.76611    
H           152.14      84.98       42.79       
H           151.73      85.43       41.17       
H           153.43176   85.07874    41.56674    
H           145.97      88.78       49.35       
H           152.95      86.66       36.49       
S           148.78      86.42       49.37       
C           146.79      88.15       49.13       
C           147.21      87.1        49.96       
C           151.84      88.3        31.48       
C           152.88      87.76       32.25       
C           150.79      88.79       32.2        
N           154.16      87.34       31.87       
N           153.79      86.9        34.08       
O           154.64      86.7        33.0        
H           150.06      89.44       34.12       
H           150.03      89.33       31.64       
C           150.77      88.8        33.64       
C           152.7       87.55       33.65       
C           151.6       88.11       34.42       
C           150.71      92.63       15.76       
C           150.77      93.59       16.72       
S           151.52      91.18       16.13       
C           151.91      91.97       22.5        
C           152.32      91.05       21.57       
C           152.96      89.93       21.94       
C           152.99      89.59       23.25       
C           152.31      90.38       24.15       
C           151.84      91.64       23.82       
C           153.76      88.59       24.09       
C           153.17      88.7        25.48       
C           152.19      89.7        25.4        
C           151.51      93.28       21.85       
C           151.62      92.89       20.36       
C           152.11      91.6        20.21       
C           153.42      88.0        26.61       
C           152.75      88.26       27.81       
C           151.76      89.29       27.71       
C           151.43      89.97       26.56       
C           151.25      93.61       19.25       
C           151.28      93.01       17.97       
C           151.77      91.68       17.81       
C           152.28      91.04       18.91       
C           155.32      89.0        24.1        
C           153.61      87.15       23.54       
C           152.56      94.3        22.3        
C           150.05      93.69       22.07       
H           151.31      92.26       24.6        
H           153.45      89.25       21.19       
H           151.0       94.66       19.17       
H           152.63      90.02       18.85       
H           154.16      87.21       26.47       
H           150.65      90.73       26.66       
H           156.03      88.18       24.33       
H           155.57      89.36       23.1        
H           155.60712   89.81828    24.76037    
H           154.17      87.03       22.7        
H           154.01      86.47       24.28       
H           152.59792   86.77047    23.39943    
H           149.57      94.05       21.14       
H           149.45      92.77       22.1        
H           149.82855   94.48294    22.78436    
H           152.49      94.55       23.36       
H           152.43      95.18       21.72       
H           153.57612   93.94718    22.12359    
H           153.67      87.07       29.48       
H           150.28      94.51       16.68       
S           150.99      89.43       29.26       
C           152.9       87.77       29.13       
C           152.08      88.31       30.0        
C           150.39      93.19       11.42       
C           150.72      94.29       12.32       
C           149.99      92.05       12.09       
N           151.22      95.52       11.96       
N           151.38      95.27       14.13       
O           151.5       96.14       13.11       
H           149.63      91.06       13.92       
H           149.54      91.3        11.51       
C           149.95      91.99       13.55       
C           150.9       94.11       13.68       
C           150.47      92.91       14.36       
C           158.41      89.82       -2.42       
C           157.88      88.95       -1.61       
S           157.76      91.43       -2.06       
C           154.32      90.2        3.06        
C           154.56      91.25       2.24        
C           154.25      92.58       2.52        
C           153.5       92.79       3.67        
C           153.14      91.74       4.53        
C           153.48      90.38       4.2         
C           152.99      94.09       4.28        
C           152.33      93.6        5.6         
C           152.43      92.17       5.68        
C           155.16      89.0        2.55        
C           155.54      89.39       1.16        
C           155.41      90.81       1.13        
C           151.67      94.34       6.55        
C           151.27      93.57       7.78        
C           151.28      92.16       7.77        
C           151.7       91.4        6.66        
C           156.34      88.75       0.27        
C           156.98      89.52       -0.68       
C           156.68      90.84       -0.79       
C           155.9       91.5        0.12        
C           151.95      94.82       3.47        
C           154.1       94.94       4.68        
C           154.34      87.72       2.55        
C           156.48      88.78       3.38        
H           153.25      89.63       4.87        
H           154.47      93.39       1.81        
H           156.39      87.66       0.2         
H           155.79      92.59       0.1         
H           151.55      95.42       6.46        
H           151.67      90.36       6.64        
H           151.67      95.75       3.99        
H           152.43      95.21       2.53        
H           151.10279   94.17382    3.24025     
H           154.76      95.06       3.78        
H           153.74      95.96       4.94        
H           154.74354   94.50869    5.44677     
H           156.64      87.68       3.39        
H           157.39      89.39       3.13        
H           156.31819   88.96291    4.44229     
H           153.98      87.49       3.55        
H           154.78      86.87       2.08        
H           153.45184   87.77595    1.9206      
H           151.03      95.16       9.27        
H           158.27      87.94       -1.55       
S           150.59      91.57       9.29        
C           150.91      94.11       9.06        
C           150.57      93.15       10.01       
C           161.87      89.65       -5.06       
C           160.94      88.6        -4.93       
C           161.49      90.77       -4.38       
N           160.96      87.46       -5.54       
N           159.23      87.43       -4.18       
O           159.86      86.75       -5.12       
H           160.03      91.78       -3.01       
H           162.11      91.63       -4.39       
C           160.24      90.84       -3.59       
C           159.76      88.61       -4.2        
C           159.41      89.8        -3.47       
C           177.22      89.86       -10.98      
C           176.86      90.2        -9.74       
S           175.87      89.65       -12.04      
C           170.94      90.5        -8.12       
C           171.17      90.0        -9.4        
C           170.09      89.57       -10.29      
C           168.8       89.57       -9.7        
C           168.58      90.15       -8.41       
C           169.67      90.72       -7.7        
C           167.59      88.89       -10.25      
C           166.63      89.1        -9.03       
C           167.26      89.9        -8.0        
C           172.29      90.9        -7.44       
C           173.29      90.31       -8.46       
C           172.62      89.94       -9.62       
C           165.25      88.84       -8.77       
C           164.62      89.21       -7.59       
C           165.37      89.96       -6.68       
C           166.71      90.3        -6.83       
C           174.61      90.42       -8.46       
C           175.39      90.28       -9.59       
C           174.7       89.94       -10.78      
C           173.32      89.65       -10.77      
C           167.76      87.36       -10.41      
C           166.94      89.64       -11.43      
C           172.41      90.08       -6.05       
C           172.38      92.48       -7.35       
H           169.46      91.1        -6.73       
H           170.32      89.01       -11.19      
H           175.23      90.63       -7.59       
H           172.84      89.44       -11.75      
H           164.62      88.21       -9.45       
H           167.29      90.83       -6.05       
H           168.5       87.26       -11.15      
H           166.81      86.98       -10.74      
H           168.12768   86.8509     -9.51908    
H           166.63      90.66       -11.12      
H           166.04      89.1        -11.68      
H           167.4945    89.63289    -12.36839   
H           173.14      92.74       -8.09       
H           171.4       92.86       -7.5        
H           172.84967   92.89521    -6.45831    
H           171.63      90.49       -5.46       
H           173.28      90.43       -5.53       
H           172.26639   89.01008    -6.20079    
H           162.53      88.35       -7.6        
H           177.44      90.32       -8.89       
S           164.45      90.35       -5.25       
C           163.28      88.91       -7.13       
C           162.96      89.61       -5.96       
C           181.09      88.61       -12.77      
C           180.94      88.93       -11.41      
C           179.95      88.74       -13.44      
N           181.79      88.7        -10.43      
N           179.86      89.49       -9.57       
O           181.17      89.09       -9.32       
H           177.88      89.43       -13.6       
H           179.85      88.46       -14.45      
C           178.74      89.23       -12.92      
C           179.67      89.26       -10.83      
C           178.49      89.48       -11.6       
C           193.65      85.22       -23.06      
C           192.37      85.59       -23.35      
S           193.88      84.94       -21.35      
C           187.81      85.86       -19.19      
C           189.08      85.55       -18.63      
C           189.3       85.43       -17.24      
C           188.17      85.78       -16.39      
C           186.94      86.12       -17.02      
C           186.71      85.92       -18.38      
C           188.13      86.25       -14.93      
C           186.63      86.68       -14.77      
C           185.97      86.61       -16.02      
C           187.97      86.2        -20.69      
C           189.39      85.9        -20.94      
C           190.08      85.5        -19.75      
C           185.84      87.01       -13.67      
C           184.49      87.42       -13.87      
C           183.9       87.36       -15.16      
C           184.65      86.9        -16.23      
C           190.11      85.85       -22.12      
C           191.47      85.52       -22.21      
C           192.16      85.17       -21.04      
C           191.45      85.18       -19.81      
C           189.14      87.42       -14.87      
C           188.59      85.13       -13.97      
C           187.57      87.66       -20.87      
C           187.09      85.37       -21.7       
H           185.78      86.16       -18.86      
H           190.28      85.39       -16.86      
H           189.68      85.97       -23.05      
H           191.97      84.92       -18.86      
H           186.29      87.1        -12.7       
H           184.24      86.87       -17.26      
H           190.13      87.11       -14.96      
H           189.01      88.17       -15.69      
H           189.05342   88.07654    -14.00423   
H           189.65      85.09       -14.11      
H           188.49      85.38       -12.92      
H           188.21022   84.14257    -14.23239   
H           186.11      85.75       -21.94      
H           187.57      85.32       -22.72      
H           187.01123   84.3317     -21.37777   
H           186.45      87.77       -20.75      
H           187.8       87.91       -21.93      
H           188.08211   88.30014    -20.15162   
H           183.69      87.98       -11.85      
H           191.94      85.81       -24.3       
S           182.23      87.99       -15.16      
C           183.5       87.86       -12.96      
C           182.29      88.14       -13.45      
C           197.14      84.67       -25.74      
C           195.86      85.06       -26.2       
C           197.04      84.15       -24.5       
N           195.5       85.32       -27.37      
N           193.73      85.78       -26.12      
O           194.19      85.77       -27.4       
H           196.07      83.97       -22.54      
H           197.94      83.8        -23.91      
C           195.91      84.32       -23.6       
C           194.71      85.22       -25.39      
C           194.78      85.02       -23.99      
H           102.57      5.7         21.12       
H           197.98      84.44       -26.42      
