612

C           124.15      43.14       18.83       
C           123.49      43.26       20.01       
S           125.85      42.52       19.0        
C           126.21      42.83       25.34       
C           127.07      42.52       24.22       
C           128.49      42.46       24.25       
C           129.08      42.77       25.45       
C           128.23      43.14       26.59       
C           126.84      43.16       26.53       
C           130.6       42.64       25.81       
C           130.53      43.05       27.3        
C           129.17      43.36       27.7        
C           124.76      42.97       24.93       
C           124.88      42.62       23.42       
C           126.22      42.29       23.08       
C           131.49      43.05       28.24       
C           131.22      43.5        29.57       
C           129.85      43.75       29.91       
C           128.82      43.62       29.0        
C           123.93      42.77       22.46       
C           124.27      42.74       21.12       
C           125.59      42.31       20.76       
C           126.54      42.06       21.77       
C           131.47      43.64       25.02       
C           131.11      41.17       25.85       
C           124.18      44.38       25.06       
C           123.83      42.02       25.76       
H           126.37      43.51       27.39       
H           129.08      42.13       23.41       
H           122.98      43.23       22.65       
H           127.58      41.82       21.5        
H           132.48      42.72       27.91       
H           127.76      43.74       29.2        
H           131.63      43.14       24.09       
H           132.43      43.63       25.44       
H           131.08354   44.64909    24.87687    
H           130.38      40.71       26.5        
H           132.04      41.04       26.26       
H           131.09512   40.62686    24.90508    
H           123.87      42.37       26.78       
H           122.83      42.05       25.28       
H           124.15296   40.98353    25.66236    
H           124.29      44.77       26.12       
H           123.1       44.38       24.88       
H           124.70426   45.15911    24.50661    
H           133.13      43.64       30.66       
H           122.49      43.68       20.04       
S           129.69      44.1        31.61       
C           132.06      43.69       30.69       
C           131.41      44.02       31.86       
C           123.0       44.6        14.79       
C           122.09      44.63       15.87       
C           124.16      43.94       15.05       
N           120.89      45.22       15.93       
N           121.32      44.32       17.96       
O           120.46      45.01       17.15       
H           125.43      42.81       16.3        
H           124.9       43.83       14.3        
C           124.46      43.35       16.34       
C           122.41      44.11       17.2        
C           123.68      43.49       17.48       
C           121.78      49.4        -1.13       
C           120.67      49.1        -0.36       
S           123.17      49.57       -0.03       
C           120.96      47.46       5.49        
C           122.11      48.05       4.93        
C           123.35      48.08       5.72        
C           123.41      47.47       6.99        
C           122.22      46.97       7.51        
C           121.0       47.02       6.77        
C           124.6       47.14       7.88        
C           123.86      46.6        9.13        
C           122.51      46.39       8.86        
C           119.75      47.67       4.52        
C           120.47      48.21       3.27        
C           121.86      48.42       3.57        
C           124.42      46.5        10.41       
C           123.57      46.05       11.38       
C           122.17      45.75       11.14       
C           121.58      45.9        9.86        
C           120.0       48.42       1.97        
C           120.88      48.82       1.02        
C           122.22      49.11       1.36        
C           122.66      48.93       2.62        
C           125.43      48.47       7.97        
C           125.48      45.99       7.3         
C           118.82      48.65       5.29        
C           118.95      46.38       4.15        
H           120.12      46.52       7.22        
H           124.25      48.39       5.25        
H           118.96      48.25       1.72        
H           123.71      49.05       2.93        
H           125.5       46.63       10.58       
H           120.55      45.77       9.61        
H           125.66      48.84       7.03        
H           126.38      48.35       8.46        
H           124.92689   49.2778     8.50145     
H           124.8       45.15       7.61        
H           126.31      45.79       7.93        
H           125.75354   46.08358    6.24904     
H           117.96      46.38       4.61        
H           118.72      46.34       3.06        
H           119.55018   45.49032    4.34065     
H           117.74      48.44       5.15        
H           119.0       48.43       6.3         
H           119.11896   49.68593    5.13009     
H           124.84      45.95       13.17       
H           119.68      48.98       -0.81       
S           121.37      45.07       12.49       
C           123.83      45.86       12.76       
C           122.84      45.25       13.5        
C           122.33      50.52       -5.48       
C           121.13      49.86       -5.0        
C           123.17      50.71       -4.43       
N           119.94      49.67       -5.61       
N           119.68      49.01       -3.38       
O           119.1       49.15       -4.67       
H           123.84      50.57       -2.49       
H           124.1       51.27       -4.54       
C           123.01      50.35       -3.09       
C           120.92      49.47       -3.59       
C           121.91      49.71       -2.58       
C           125.74      56.91       -20.53      
C           126.25      57.35       -19.36      
S           124.62      55.62       -20.31      
C           124.78      55.1        -13.82      
C           124.21      54.44       -14.96      
C           123.29      53.35       -14.77      
C           122.96      53.06       -13.42      
C           123.69      53.56       -12.35      
C           124.5       54.67       -12.57      
C           122.02      51.97       -12.9       
C           122.24      52.03       -11.41      
C           123.29      52.86       -11.15      
C           125.74      56.24       -14.35      
C           125.52      56.15       -15.86      
C           124.73      55.06       -16.21      
C           121.68      51.35       -10.38      
C           122.22      51.39       -9.07       
C           123.35      52.21       -8.89       
C           123.89      53.01       -9.93       
C           126.07      56.98       -16.83      
C           125.71      56.73       -18.19      
C           124.89      55.7        -18.58      
C           124.42      54.86       -17.54      
C           122.39      50.63       -13.58      
C           120.57      52.29       -13.23      
C           127.27      56.19       -13.95      
C           125.06      57.56       -13.92      
H           125.1       55.04       -11.71      
H           122.87      52.9        -15.62      
H           126.86      57.63       -16.57      
H           123.78      53.98       -17.73      
H           120.76      50.83       -10.54      
H           124.74      53.69       -9.78       
H           122.12      50.58       -14.61      
H           123.45      50.63       -13.5       
H           122.11001   49.76131    -12.98412   
H           120.32      51.85       -14.15      
H           119.94      51.86       -12.46      
H           120.41687   53.36189    -13.35529   
H           125.24      58.38       -14.67      
H           123.98      57.23       -13.85      
H           125.30582   57.92105    -12.92134   
H           127.79      57.15       -14.15      
H           127.31      56.15       -12.92      
H           127.85475   55.39132    -14.40639   
H           121.04      50.09       -7.93       
H           126.92      58.24       -19.23      
S           123.86      52.13       -7.19       
C           121.83      50.76       -7.91       
C           122.59      50.96       -6.8        
C           127.58      58.0        -24.43      
C           126.44      57.09       -24.4       
C           127.79      58.56       -23.23      
N           125.8       56.51       -25.42      
N           124.81      55.98       -23.46      
O           124.75      55.85       -24.86      
H           127.52      58.76       -21.03      
H           128.59      59.16       -23.09      
C           127.17      58.23       -21.96      
C           125.81      56.78       -23.17      
C           126.22      57.28       -21.87      
C           138.13      65.37       -34.85      
C           138.39      65.04       -33.58      
S           136.62      64.63       -35.38      
C           134.6       61.89       -29.98      
C           134.18      62.11       -31.28      
C           133.01      61.44       -31.75      
C           132.19      60.76       -30.87      
C           132.64      60.5        -29.57      
C           133.93      60.97       -29.16      
C           130.86      60.02       -31.05      
C           130.54      59.57       -29.63      
C           131.58      59.98       -28.74      
C           135.92      62.65       -29.69      
C           136.18      63.25       -31.09      
C           135.08      62.95       -31.97      
C           129.36      58.97       -29.14      
C           129.24      58.79       -27.74      
C           130.4       58.98       -26.93      
C           131.61      59.48       -27.42      
C           137.21      64.06       -31.59      
C           137.33      64.3        -32.94      
C           136.3       63.97       -33.8       
C           135.15      63.32       -33.36      
C           131.02      58.83       -32.0       
C           129.85      61.03       -31.62      
C           136.94      61.72       -29.12      
C           135.81      63.93       -28.84      
H           134.39      60.59       -28.3       
H           132.66      61.63       -32.81      
H           138.04      64.32       -30.98      
H           134.4       63.03       -34.06      
H           128.45      58.78       -29.75      
H           132.45      59.71       -26.73      
H           130.04      58.52       -32.36      
H           131.63      59.16       -32.84      
H           131.49957   58.00686    -31.47033   
H           130.16      61.05       -32.66      
H           128.77      60.83       -31.68      
H           130.01629   62.04217    -31.25128   
H           136.84      64.29       -28.49      
H           135.41      64.75       -29.43      
H           135.12535   63.79169    -28.00321   
H           136.75      61.54       -28.08      
H           137.88      62.3        -29.11      
H           137.06246   60.76915    -29.63864   
H           127.06      58.22       -27.25      
H           139.23      65.39       -32.99      
S           130.08      58.54       -25.24      
C           128.05      58.45       -26.91      
C           128.39      58.36       -25.57      
C           140.48      68.22       -37.35      
C           139.23      67.63       -37.84      
C           140.78      67.79       -36.06      
N           138.61      67.73       -39.01      
N           137.42      66.39       -37.76      
O           137.4       67.06       -38.94      
H           140.55      66.63       -34.38      
H           141.71      68.18       -35.63      
C           140.07      66.82       -35.36      
C           138.45      66.73       -37.03      
C           138.9       66.29       -35.71      
C           148.54      82.07       -39.79      
C           148.95      81.07       -39.02      
S           147.06      81.67       -40.6       
C           146.53      75.47       -39.11      
C           145.92      76.37       -40.0       
C           144.78      76.07       -40.76      
C           144.27      74.77       -40.61      
C           145.01      73.79       -39.82      
C           146.14      74.08       -39.09      
C           142.93      74.19       -40.95      
C           143.06      72.71       -40.57      
C           144.23      72.58       -39.74      
C           147.79      76.1        -38.47      
C           147.62      77.54       -38.93      
C           146.61      77.69       -39.87      
C           142.0       71.79       -40.53      
C           142.08      70.8        -39.53      
C           143.27      70.65       -38.77      
C           144.34      71.54       -38.9       
C           148.51      78.57       -38.65      
C           148.27      79.85       -39.23      
C           147.29      80.02       -40.21      
C           146.47      78.95       -40.49      
C           142.88      74.12       -42.51      
C           141.72      74.99       -40.45      
C           149.01      75.23       -38.83      
C           147.58      76.09       -36.93      
H           146.59      73.5        -38.33      
H           144.42      76.76       -41.49      
H           149.21      78.42       -37.84      
H           145.64      79.11       -41.17      
H           141.06      71.91       -41.07      
H           145.14      71.54       -38.16      
H           142.96      75.15       -42.8       
H           141.87      73.78       -42.84      
H           143.693     73.5509     -42.96084   
H           141.63      75.86       -41.01      
H           140.8       74.42       -40.6       
H           141.88262   75.34353    -39.43183   
H           147.56      75.06       -36.57      
H           148.29      76.75       -36.5       
H           146.59956   76.47517    -36.64987   
H           148.76      74.23       -38.58      
H           149.06      75.36       -39.9       
H           149.95057   75.5758     -38.40121   
H           140.02      69.81       -39.51      
H           149.74      81.17       -38.32      
S           143.0       69.43       -37.54      
C           141.02      69.95       -39.08      
C           141.39      69.13       -38.04      
C           150.05      86.25       -39.46      
C           149.33      85.76       -40.52      
C           150.28      85.26       -38.55      
N           148.89      86.41       -41.65      
N           148.19      84.28       -41.76      
O           148.19      85.52       -42.36      
H           150.16      83.22       -37.83      
H           150.7       85.57       -37.59      
C           149.88      83.87       -38.69      
C           148.9       84.41       -40.67      
C           149.1       83.43       -39.72      
C           155.81      101.58      -36.01      
C           155.92      100.52      -35.12      
S           154.83      101.16      -37.36      
C           153.49      95.09       -36.14      
C           153.22      96.03       -37.14      
C           152.51      95.63       -38.32      
C           152.05      94.3        -38.43      
C           152.51      93.35       -37.52      
C           153.2       93.71       -36.31      
C           151.21      93.71       -39.58      
C           151.25      92.22       -39.23      
C           151.98      92.03       -38.02      
C           154.33      95.7        -35.06      
C           154.44      97.11       -35.51      
C           153.84      97.3        -36.73      
C           150.77      91.22       -40.03      
C           150.85      89.89       -39.49      
C           151.49      89.68       -38.24      
C           152.09      90.7        -37.56      
C           155.06      98.13       -34.86      
C           155.19      99.36       -35.54      
C           154.51      99.57       -36.7       
C           153.86      98.54       -37.37      
C           151.85      94.03       -40.95      
C           149.77      94.32       -39.5       
C           155.74      95.05       -34.89      
C           153.49      95.71       -33.72      
H           153.22      92.96       -35.53      
H           152.28      96.39       -39.1       
H           155.56      98.05       -33.89      
H           153.37      98.62       -38.4       
H           150.28      91.36       -41.0       
H           152.78      90.5        -36.69      
H           151.2       93.65       -41.82      
H           151.96      95.08       -41.16      
H           152.77904   93.47535    -41.08173   
H           149.75      95.37       -39.43      
H           149.2       94.08       -40.36      
H           149.13097   93.9251     -38.71019   
H           153.95      96.42       -32.98      
H           152.41      95.96       -33.95      
H           153.4474    94.73724    -33.23007   
H           156.1       95.48       -33.92      
H           155.63      93.98       -34.77      
H           156.39622   95.18124    -35.75038   
H           150.08      88.5        -41.1       
H           156.53      100.53      -34.27      
S           151.32      87.98       -37.74      
C           150.42      88.61       -40.11      
C           150.49      87.59       -39.25      
C           158.07      105.21      -36.89      
C           158.29      104.46      -35.72      
C           157.07      104.66      -37.64      
N           159.25      104.6       -34.84      
N           158.17      102.65      -34.34      
O           159.08      103.54      -33.92      
H           155.43      103.42      -37.89      
H           156.71      105.17      -38.53      
C           156.24      103.6       -37.25      
C           157.56      103.28      -35.35      
C           156.49      102.83      -36.17      
C           168.57      114.39      -46.0       
C           168.9       113.24      -45.43      
S           166.86      114.52      -46.24      
C           165.13      110.31      -41.65      
C           164.42      111.27      -42.55      
C           163.01      111.3       -42.63      
C           162.34      110.4       -41.85      
C           162.96      109.73      -40.82      
C           164.38      109.61      -40.73      
C           160.87      110.02      -41.93      
C           160.79      109.31      -40.68      
C           162.01      108.9       -40.15      
C           166.62      110.43      -41.87      
C           166.7       111.25      -43.17      
C           165.44      111.93      -43.4       
C           159.62      108.72      -40.13      
C           159.65      107.86      -39.04      
C           160.87      107.47      -38.61      
C           162.09      107.96      -39.14      
C           167.86      111.52      -43.89      
C           167.83      112.61      -44.79      
C           166.6       113.18      -45.14      
C           165.41      112.83      -44.45      
C           160.67      109.16      -43.21      
C           159.94      111.28      -41.91      
C           167.21      109.01      -42.11      
C           167.28      111.11      -40.61      
H           164.83      108.92      -39.97      
H           162.5       111.78      -43.5       
H           168.76      111.0       -43.79      
H           164.43      113.21      -44.72      
H           158.7       108.98      -40.56      
H           163.06      107.61      -38.71      
H           160.6       109.79      -44.12      
H           161.52      108.43      -43.23      
H           159.75629   108.57004   -43.13805   
H           160.24      111.98      -42.68      
H           158.87      111.04      -42.03      
H           160.03178   111.83777   -40.97803   
H           167.57      110.38      -39.91      
H           168.22      111.61      -40.8       
H           166.64246   111.84671   -40.12122   
H           167.18      108.47      -41.12      
H           168.24      109.12      -42.56      
H           166.59764   108.44138   -42.80984   
H           157.56      107.26      -38.87      
H           169.96      113.0       -45.3       
S           160.67      106.38      -37.28      
C           158.53      107.1       -38.55      
C           158.91      106.22      -37.54      
C           170.97      117.93      -46.76      
C           171.49      116.62      -46.97      
C           169.67      117.94      -46.37      
N           172.73      116.25      -47.2       
N           171.44      114.4       -47.03      
O           172.71      114.9       -47.14      
H           167.83      116.94      -46.08      
H           169.19      118.88      -46.14      
C           168.87      116.76      -46.28      
C           170.68      115.45      -46.78      
C           169.32      115.54      -46.47      
C           178.61      131.82      -51.13      
C           178.91      130.57      -51.59      
S           178.1       131.65      -49.49      
C           176.78      125.31      -49.29      
C           176.72      126.39      -48.38      
C           176.08      126.18      -47.14      
C           175.43      125.0       -46.88      
C           175.46      124.01      -47.83      
C           176.09      124.09      -49.09      
C           174.6       124.62      -45.66      
C           174.12      123.24      -46.14      
C           174.72      122.9       -47.42      
C           177.54      125.75      -50.59      
C           177.82      127.21      -50.31      
C           177.27      127.6       -49.11      
C           173.21      122.34      -45.64      
C           172.87      121.11      -46.37      
C           173.5       120.88      -47.63      
C           174.41      121.79      -48.13      
C           178.53      128.12      -51.11      
C           178.44      129.49      -50.79      
C           177.86      129.89      -49.56      
C           177.19      128.99      -48.72      
C           173.4       125.59      -45.43      
C           175.35      124.37      -44.42      
C           176.7       125.71      -51.99      
C           178.87      124.99      -50.68      
H           176.0       123.22      -49.78      
H           176.12      127.04      -46.4       
H           178.83      127.75      -52.08      
H           176.76      129.39      -47.84      
H           172.64      122.63      -44.75      
H           174.83      121.64      -49.12      
H           173.14      125.4       -44.37      
H           173.61      126.66      -45.58      
H           172.552     125.44748   -46.09984   
H           175.63      125.28      -43.96      
H           174.68      123.81      -43.79      
H           176.20263   123.69908   -44.52483   
H           179.61      125.45      -51.37      
H           179.4       125.06      -49.76      
H           178.69039   123.94828   -50.94582   
H           176.52      124.62      -52.16      
H           177.3       126.01      -52.9       
H           175.75934   126.25993   -52.01894   
H           171.26      120.08      -45.13      
H           179.39      130.43      -52.6       
S           172.92      119.36      -48.25      
C           171.9       120.09      -46.01      
C           171.78      119.15      -46.95      
C           179.33      135.9       -52.62      
C           179.97      134.83      -53.33      
C           178.5       135.54      -51.63      
N           180.83      134.85      -54.28      
N           180.47      132.67      -53.59      
O           181.18      133.55      -54.4       
H           177.48      134.11      -50.49      
H           177.86      136.25      -51.06      
C           178.25      134.21      -51.2       
C           179.73      133.47      -52.86      
C           178.83      133.12      -51.78      
C           175.04      150.39      -59.1       
C           175.37      149.26      -59.79      
S           175.64      150.32      -57.45      
C           177.66      144.34      -57.27      
C           177.48      145.42      -56.41      
C           177.7       145.21      -54.99      
C           178.16      143.97      -54.52      
C           178.39      142.92      -55.41      
C           178.12      143.13      -56.74      
C           178.35      143.5       -53.06      
C           178.56      141.99      -53.32      
C           178.57      141.66      -54.69      
C           177.32      144.67      -58.71      
C           176.79      146.07      -58.51      
C           177.01      146.52      -57.19      
C           178.76      140.96      -52.42      
C           178.99      139.64      -52.9       
C           178.9       139.44      -54.33      
C           178.68      140.41      -55.24      
C           176.33      146.99      -59.47      
C           175.89      148.21      -59.0       
C           176.07      148.65      -57.69      
C           176.71      147.82      -56.73      
C           177.12      143.73      -52.14      
C           179.65      144.1       -52.48      
C           176.15      143.86      -59.41      
C           178.59      144.78      -59.55      
H           178.13      142.34      -57.46      
H           177.48      146.05      -54.34      
H           176.23      146.61      -60.51      
H           176.77      148.15      -55.71      
H           178.71      141.14      -51.36      
H           178.57      140.19      -56.28      
H           177.05      144.83      -52.0       
H           177.29      143.19      -51.2       
H           176.19253   143.37946   -52.59278   
H           180.52      143.58      -52.99      
H           179.7       143.72      -51.49      
H           179.71485   145.18797   -52.49441   
H           179.0       145.7       -59.52      
H           179.33      144.1       -59.07      
H           178.52345   144.46941   -60.59269   
H           176.48      142.77      -59.44      
H           175.79      144.3       -60.36      
H           175.29846   143.76775   -58.73586   
H           179.3       138.41      -51.05      
H           175.2       149.14      -60.81      
S           179.02      137.71      -54.7       
C           179.27      138.44      -52.2       
C           179.38      137.31      -53.03      
C           173.51      154.17      -60.62      
C           174.51      153.44      -61.27      
C           172.96      153.52      -59.53      
N           175.22      153.85      -62.37      
N           175.94      151.8       -61.6       
O           176.05      152.77      -62.47      
H           173.08      151.98      -58.0       
H           172.22      154.04      -59.0       
C           173.48      152.33      -58.98      
C           174.98      152.21      -60.79      
C           174.52      151.64      -59.6       
C           166.14      168.35      -65.67      
C           167.47      168.1       -65.94      
S           165.49      167.1       -64.62      
C           170.44      163.24      -63.69      
C           169.15      163.33      -63.35      
C           168.48      162.3       -62.56      
C           169.17      161.18      -62.2       
C           170.49      161.04      -62.53      
C           171.14      162.06      -63.28      
C           168.59      159.86      -61.59      
C           169.83      158.99      -61.54      
C           170.96      159.76      -61.95      
C           170.77      164.25      -64.81      
C           169.47      165.06      -64.89      
C           168.53      164.47      -64.0       
C           169.9       157.62      -61.32      
C           171.17      157.09      -61.23      
C           172.3       157.86      -61.6       
C           172.26      159.2       -61.95      
C           169.18      166.27      -65.49      
C           167.9       166.82      -65.4       
C           166.92      166.14      -64.68      
C           167.18      164.88      -63.99      
C           167.43      159.34      -62.43      
C           168.15      160.03      -60.11      
C           171.04      163.55      -66.13      
C           171.89      165.25      -64.4       
H           172.21      161.92      -63.52      
H           167.37      162.34      -62.42      
H           169.97      166.94      -65.87      
H           166.43      164.36      -63.51      
H           169.01      157.07      -61.02      
H           173.17      159.68      -62.32      
H           167.03      158.42      -62.03      
H           166.59      160.07      -62.23      
H           167.70341   159.22916   -63.47931   
H           167.43      160.86      -59.91      
H           167.71      159.04      -59.93      
H           168.9684    160.23819   -59.42082   
H           172.33      165.54      -65.37      
H           171.39      166.18      -64.02      
H           172.66031   164.91078   -63.70743   
H           171.99      162.99      -65.95      
H           171.28      164.38      -66.83      
H           170.22236   162.95137   -66.53152   
H           170.73      155.05      -60.55      
H           168.13      168.76      -66.46      
S           173.73      156.85      -61.46      
C           171.47      155.72      -60.89      
C           172.81      155.4       -61.12      
C           163.27      171.55      -66.87      
C           164.6       171.54      -67.34      
C           163.03      170.57      -66.03      
N           165.22      172.33      -68.21      
N           166.74      170.86      -67.47      
O           166.51      171.82      -68.3       
H           163.45      168.63      -65.14      
H           162.06      170.42      -65.53      
C           163.92      169.47      -65.69      
C           165.57      170.57      -66.91      
C           165.25      169.44      -66.08      
H           131.77      43.85       32.93       
H           162.65      172.38      -66.89      
