612

C           106.24      48.8        16.28       
C           105.08      48.11       16.54       
S           107.17      49.11       17.68       
C           103.58      46.44       22.26       
C           104.8       47.18       22.21       
C           105.69      47.51       23.26       
C           105.3       47.03       24.5        
C           104.03      46.39       24.62       
C           103.16      46.18       23.52       
C           106.1       46.98       25.81       
C           105.02      46.56       26.79       
C           103.89      46.04       26.08       
C           102.96      46.14       20.88       
C           103.89      47.01       20.01       
C           105.0       47.52       20.79       
C           105.1       46.44       28.19       
C           104.08      45.69       28.8        
C           102.98      45.17       28.02       
C           102.87      45.35       26.64       
C           103.79      47.28       18.66       
C           104.83      47.94       17.93       
C           105.97      48.34       18.74       
C           106.02      48.22       20.16       
C           106.69      48.35       26.03       
C           107.24      45.94       25.93       
C           101.52      46.68       20.74       
C           103.13      44.62       20.47       
H           102.21      45.6        23.58       
H           106.58      48.06       22.96       
H           103.01      46.9        18.05       
H           106.81      48.68       20.79       
H           105.96      46.91       28.7        
H           102.05      44.96       26.11       
H           107.43      48.55       25.23       
H           107.21      48.4        26.91       
H           105.88633   49.08556    26.06405    
H           106.83      44.93       25.87       
H           107.82      46.21       26.88       
H           108.02012   45.99572    25.17078    
H           102.66      44.62       19.46       
H           104.12      44.27       20.36       
H           102.57955   43.86224    21.0276     
H           100.87      46.05       21.37       
H           101.1       46.56       19.74       
H           101.30533   47.68178    21.11209    
H           104.58      45.52       31.04       
H           104.53      47.68       15.73       
S           101.91      44.15       28.94       
C           103.91      45.23       30.19       
C           102.8       44.42       30.39       
C           108.01      50.37       12.52       
C           106.62      50.01       12.64       
C           108.65      50.36       13.67       
N           105.64      49.86       11.72       
N           104.85      48.99       13.62       
O           104.59      49.22       12.31       
H           108.8       49.99       15.73       
H           109.63      50.73       13.72       
C           108.07      49.92       14.91       
C           106.08      49.44       13.86       
C           106.82      49.33       15.04       
C           113.82      58.39       -0.7        
C           112.5       57.99       -0.54       
S           114.83      57.8        0.64        
C           110.55      54.86       4.27        
C           111.99      54.86       4.14        
C           112.87      54.42       5.06        
C           112.26      53.74       6.11        
C           110.85      53.67       6.24        
C           109.99      54.32       5.37        
C           112.88      52.97       7.23        
C           111.66      52.48       8.05        
C           110.45      52.94       7.43        
C           109.85      55.39       3.01        
C           111.11      55.73       2.19        
C           112.27      55.67       2.92        
C           111.57      51.82       9.3         
C           110.28      51.59       9.83        
C           109.1       51.94       9.11        
C           109.18      52.62       7.89        
C           111.07      56.46       1.02        
C           112.24      57.2        0.58        
C           113.43      57.04       1.37        
C           113.46      56.16       2.46        
C           113.76      53.79       8.22        
C           113.6       51.64       6.78        
C           109.01      56.71       3.42        
C           108.98      54.24       2.4         
H           108.95      54.22       5.52        
H           113.92      54.61       4.89        
H           110.15      56.38       0.35        
H           114.33      56.04       3.07        
H           112.42      51.52       9.9         
H           108.23      52.89       7.39        
H           114.55      54.13       7.67        
H           114.19      53.22       9.02        
H           113.21094   54.62064    8.66348     
H           112.92      50.96       6.23        
H           113.77      51.11       7.75        
H           114.53682   51.80779    6.24867     
H           108.35      53.91       3.26        
H           108.18      54.47       1.71        
H           109.64574   53.45877    2.03316     
H           108.38      56.63       4.28        
H           109.72      57.5        3.65        
H           108.37663   57.05945    2.60463     
H           110.6       51.03       11.93       
H           111.73      58.26       -1.27       
S           107.6       51.5        9.96        
C           109.91      51.12       11.12       
C           108.59      50.81       11.25       
C           115.94      61.38       -3.07       
C           114.58      61.11       -3.33       
C           116.52      60.5        -2.27       
N           113.76      61.75       -4.11       
N           112.64      60.16       -3.02       
O           112.53      61.21       -3.86       
H           116.45      58.82       -0.92       
H           117.62      60.59       -2.18       
C           115.88      59.48       -1.52       
C           113.83      60.19       -2.56       
C           114.51      59.32       -1.57       
C           124.44      75.52       -6.18       
C           124.62      74.77       -5.06       
S           123.14      74.87       -7.12       
C           121.5       69.6        -4.08       
C           121.19      70.32       -5.23       
C           120.14      69.86       -6.06       
C           119.45      68.66       -5.79       
C           119.95      67.77       -4.79       
C           121.01      68.3        -3.99       
C           118.2       68.03       -6.44       
C           118.21      66.61       -5.77       
C           119.08      66.6        -4.7        
C           122.58      70.4        -3.27       
C           122.85      71.61       -4.17       
C           121.98      71.56       -5.27       
C           117.35      65.51       -5.82       
C           117.21      64.55       -4.76       
C           118.11      64.65       -3.74       
C           119.04      65.65       -3.67       
C           123.7       72.63       -4.04       
C           123.77      73.65       -4.99       
C           122.85      73.54       -6.03       
C           121.95      72.56       -6.2        
C           118.42      67.71       -7.96       
C           116.89      68.77       -6.12       
C           123.81      69.45       -3.03       
C           121.99      70.99       -2.0        
H           121.25      67.78       -3.16       
H           119.87      70.46       -6.85       
H           124.34      72.69       -3.16       
H           121.26      72.43       -7.08       
H           116.64      65.35       -6.64       
H           119.79      65.64       -2.89       
H           118.72      68.54       -8.55       
H           119.28      67.05       -8.01       
H           117.65722   67.11831    -8.46614    
H           116.52      69.5        -6.89       
H           116.12      68.02       -5.97       
H           117.00984   69.31282    -5.1824     
H           122.72      71.54       -1.41       
H           121.18      71.68       -2.33       
H           121.47835   70.22253    -1.41921    
H           123.55      68.68       -2.29       
H           124.04      69.04       -4.01       
H           124.68756   69.96191    -2.6351     
H           115.55      63.17       -5.39       
H           125.37      75.0        -4.32       
S           117.85      63.31       -2.63       
C           116.29      63.42       -4.66       
C           116.52      62.67       -3.57       
C           126.0       79.38       -7.45       
C           126.44      78.76       -6.24       
C           125.32      78.5        -8.21       
N           127.21      79.23       -5.28       
N           126.49      77.27       -4.65       
O           127.3       78.32       -4.36       
H           124.28      76.6        -8.54       
H           125.04      78.83       -9.17       
C           124.88      77.18       -7.84       
C           125.96      77.48       -5.82       
C           125.07      76.71       -6.61       
C           128.09      95.06       -11.79      
C           127.07      94.3        -12.3       
S           129.25      94.16       -10.83      
C           126.82      88.24       -11.22      
C           127.99      88.9        -10.86      
C           129.03      88.19       -10.11      
C           128.77      86.91       -9.82       
C           127.44      86.37       -10.06      
C           126.51      87.0        -10.79      
C           129.6       85.93       -8.96       
C           128.63      84.73       -8.84       
C           127.42      85.06       -9.5        
C           125.97      89.31       -11.96      
C           126.74      90.63       -11.78      
C           127.95      90.36       -11.11      
C           128.84      83.46       -8.3        
C           127.73      82.59       -8.14       
C           126.52      82.95       -8.84       
C           126.46      84.06       -9.65       
C           126.4       91.85       -12.28      
C           127.21      92.92       -11.95      
C           128.35      92.71       -11.16      
C           128.76      91.42       -10.66      
C           129.86      86.55       -7.58       
C           130.93      85.47       -9.66       
C           124.55      89.35       -11.31      
C           125.94      89.05       -13.47      
H           125.56      86.58       -11.0       
H           129.99      88.61       -9.89       
H           125.45      92.03       -12.82      
H           129.68      91.25       -10.14      
H           129.74      83.17       -7.74       
H           125.59      84.33       -10.27      
H           130.87      86.24       -7.22       
H           129.99      87.6        -7.74       
H           129.08627   86.31575    -6.84886    
H           131.65      86.28       -9.85       
H           131.46      84.71       -9.12       
H           130.77628   84.94594    -10.60331   
H           125.15      88.28       -13.57      
H           125.63      90.02       -13.93      
H           126.88977   88.755      -13.9161    
H           124.09      88.34       -11.41      
H           123.94      90.05       -11.79      
H           124.61964   89.62854    -10.25849   
H           128.45      80.68       -7.12       
H           126.25      94.67       -12.95      
S           125.34      81.64       -8.83       
C           127.61      81.27       -7.59       
C           126.44      80.66       -7.94       
C           128.85      99.43       -12.01      
C           127.99      98.84       -12.9       
C           129.35      98.61       -11.09      
N           127.44      99.29       -14.04      
N           126.7       97.13       -13.68      
O           126.59      98.31       -14.47      
H           129.74      96.62       -10.34      
H           130.2       98.95       -10.46      
C           129.07      97.21       -11.01      
C           127.6       97.4        -12.79      
C           128.24      96.53       -11.86      
C           135.56      113.93      -16.56      
C           135.33      112.91      -17.4       
S           135.04      113.55      -14.87      
C           133.1       107.56      -15.63      
C           133.21      108.53      -14.55      
C           132.87      108.21      -13.26      
C           132.41      106.91      -12.94      
C           132.34      106.02      -14.02      
C           132.57      106.32      -15.32      
C           131.91      106.39      -11.63      
C           131.57      104.94      -12.02      
C           131.82      104.75      -13.43      
C           133.42      108.25      -16.99      
C           133.79      109.63      -16.53      
C           133.73      109.75      -15.19      
C           131.14      103.92      -11.23      
C           130.64      102.76      -11.85      
C           130.81      102.61      -13.22      
C           131.48      103.58      -14.01      
C           134.4       110.59      -17.37      
C           134.69      111.83      -16.77      
C           134.56      111.94      -15.38      
C           134.11      110.89      -14.57      
C           130.64      107.17      -11.23      
C           133.01      106.38      -10.57      
C           132.22      108.22      -17.9       
C           134.64      107.56      -17.71      
H           132.43      105.51      -16.09      
H           132.91      108.98      -12.45      
H           134.58      110.41      -18.43      
H           133.94      110.96      -13.5       
H           130.92      104.09      -10.21      
H           131.6       103.38      -15.14      
H           130.93      108.22      -11.14      
H           130.2       106.78      -10.31      
H           129.9484    107.19054   -12.07224   
H           133.45      107.36      -10.46      
H           132.64      106.08      -9.59       
H           133.87823   105.75777   -10.78706   
H           134.5       106.61      -18.17      
H           134.97      108.26      -18.52      
H           135.46985   107.43233   -17.01491   
H           132.4       108.96      -18.71      
H           132.16      107.26      -18.34      
H           131.24245   108.43564   -17.46873   
H           129.74      101.52      -10.15      
H           135.6       112.96      -18.43      
S           130.1       101.15      -13.77      
C           129.93      101.66      -11.24      
C           129.43      100.8       -12.18      
C           136.71      118.19      -17.48      
C           136.1       117.29      -18.43      
C           137.04      117.53      -16.32      
N           135.95      117.48      -19.74      
N           135.09      115.43      -19.25      
O           135.32      116.37      -20.17      
H           136.94      115.79      -15.07      
H           137.47      118.11      -15.55      
C           136.57      116.16      -15.98      
C           135.71      115.94      -18.16      
C           135.97      115.34      -16.89      
C           144.9       131.06      -21.58      
C           143.73      130.86      -22.19      
S           144.99      130.29      -20.01      
C           139.55      127.2       -19.76      
C           140.54      127.63      -18.92      
C           140.65      127.09      -17.59      
C           139.91      125.94      -17.35      
C           138.9       125.55      -18.24      
C           138.66      126.22      -19.42      
C           139.96      124.97      -16.14      
C           139.18      123.76      -16.76      
C           138.42      124.26      -17.83      
C           139.77      127.75      -21.22      
C           140.8       128.78      -20.87      
C           141.4       128.47      -19.62      
C           139.19      122.39      -16.41      
C           138.27      121.57      -17.06      
C           137.44      122.04      -18.1       
C           137.56      123.34      -18.49      
C           141.5       129.56      -21.82      
C           142.8       130.06      -21.45      
C           143.37      129.66      -20.21      
C           142.67      128.93      -19.24      
C           139.4       125.59      -14.89      
C           141.47      124.49      -15.94      
C           138.35      128.32      -21.57      
C           140.28      126.72      -22.31      
H           138.05      125.72      -20.19      
H           141.53      127.37      -16.95      
H           141.16      129.75      -22.86      
H           143.07      128.6       -18.31      
H           139.94      122.07      -15.66      
H           137.09      123.74      -19.37      
H           140.11      126.29      -14.56      
H           138.58      126.28      -15.18      
H           139.06739   124.86694   -14.14525   
H           142.11      125.38      -15.77      
H           141.46      123.89      -15.08      
H           141.83909   123.92592   -16.79656   
H           139.5       125.95      -22.41      
H           140.38      127.27      -23.21      
H           141.25308   126.28211   -22.08758   
H           137.58      127.52      -21.74      
H           138.07      129.01      -20.75      
H           138.29346   129.01964   -22.40391   
H           138.84      119.55      -16.32      
H           143.54      131.31      -23.15      
S           136.44      120.72      -18.79      
C           138.12      120.13      -16.96      
C           137.13      119.56      -17.65      
C           148.22      133.69      -22.86      
C           146.89      133.86      -23.3       
C           148.36      132.67      -22.04      
N           146.45      134.86      -24.06      
N           144.74      133.5       -23.51      
O           145.13      134.64      -24.15      
H           147.47      130.85      -21.03      
H           149.35      132.54      -21.6       
C           147.28      131.77      -21.62      
C           145.79      133.01      -22.88      
C           145.99      131.9       -22.04      
C           161.79      142.11      -27.96      
C           161.96      140.85      -27.51      
S           160.13      142.65      -27.8       
C           157.22      137.6       -25.4       
C           156.97      138.94      -25.77      
C           155.67      139.41      -25.98      
C           154.59      138.58      -25.59      
C           154.85      137.33      -25.02      
C           156.16      136.87      -24.88      
C           153.11      138.77      -25.83      
C           152.47      137.69      -24.96      
C           153.53      136.74      -24.65      
C           158.75      137.34      -25.52      
C           159.29      138.65      -26.11      
C           158.19      139.54      -26.17      
C           151.1       137.53      -24.68      
C           150.77      136.26      -24.13      
C           151.77      135.26      -23.94      
C           153.17      135.5       -24.21      
C           160.62      138.99      -26.42      
C           160.78      140.3       -27.0       
C           159.67      141.16      -27.03      
C           158.37      140.81      -26.68      
C           152.92      138.54      -27.3       
C           152.69      140.18      -25.32      
C           159.07      136.17      -26.52      
C           159.42      137.18      -24.18      
H           156.37      135.86      -24.46      
H           155.53      140.41      -26.43      
H           161.49      138.37      -26.26      
H           157.63      141.51      -26.71      
H           150.34      138.29      -24.83      
H           153.87      134.67      -23.99      
H           153.46      139.39      -27.74      
H           153.42      137.63      -27.6       
H           151.90413   138.57577   -27.69347   
H           153.18      140.99      -25.83      
H           151.63      140.16      -25.48      
H           152.71822   140.26465   -24.23366   
H           159.12      136.18      -23.67      
H           160.51      137.26      -24.21      
H           159.20745   137.9806    -23.47151   
H           158.9       135.16      -26.04      
H           160.1       136.11      -26.87      
H           158.50479   136.34849   -27.43475   
H           148.62      136.43      -24.08      
H           162.87      140.26      -27.57      
S           150.95      133.81      -23.32      
C           149.45      135.81      -23.85      
C           149.34      134.56      -23.28      
C           163.96      144.11      -31.19      
C           163.96      142.71      -31.09      
C           163.37      144.71      -30.14      
N           164.38      141.78      -31.98      
N           163.27      140.76      -30.29      
O           163.79      140.66      -31.54      
H           162.34      144.63      -28.19      
H           163.22      145.81      -30.09      
C           162.75      144.05      -29.04      
C           163.27      142.01      -30.01      
C           162.65      142.73      -28.96      
C           160.65      154.66      -42.72      
C           160.26      153.4       -42.79      
S           162.11      154.77      -41.75      
C           162.54      148.88      -39.32      
C           163.31      150.13      -39.39      
C           164.43      150.34      -38.62      
C           164.66      149.35      -37.66      
C           163.93      148.14      -37.54      
C           162.9       147.9       -38.42      
C           165.41      149.56      -36.4       
C           165.05      148.3       -35.57      
C           164.22      147.42      -36.34      
C           161.26      148.97      -40.09      
C           161.42      150.34      -40.75      
C           162.58      151.02      -40.27      
C           165.39      147.95      -34.3       
C           164.94      146.69      -33.79      
C           164.28      145.83      -34.63      
C           163.91      146.15      -35.89      
C           160.62      151.04      -41.68      
C           160.93      152.43      -41.95      
C           161.97      153.05      -41.29      
C           162.85      152.33      -40.46      
C           164.88      150.89      -35.76      
C           166.93      149.68      -36.6       
C           159.94      149.04      -39.23      
C           161.14      147.81      -41.22      
H           162.31      147.0       -38.32      
H           164.99      151.29      -38.69      
H           159.78      150.63      -42.14      
H           163.68      152.79      -39.99      
H           165.89      148.66      -33.62      
H           163.39      145.43      -36.53      
H           165.4       151.07      -34.76      
H           165.17      151.74      -36.34      
H           163.79447   150.93966   -35.67486   
H           167.17      150.19      -37.45      
H           167.55      150.22      -35.79      
H           167.431     148.72033   -36.72701   
H           160.37      148.11      -41.96      
H           162.14      147.8       -41.83      
H           160.8242    146.82753   -40.86912   
H           159.9       148.18      -38.66      
H           159.08      149.17      -39.83      
H           159.9472    149.93227   -38.60397   
H           165.37      146.58      -31.53      
H           159.37      153.06      -43.38      
S           163.72      144.3       -33.85      
C           164.96      146.09      -32.47      
C           164.35      144.85      -32.4       
C           158.84      158.51      -44.01      
C           158.22      157.27      -44.2       
C           160.1       158.36      -43.44      
N           157.0       157.06      -44.7       
N           157.79      155.16      -43.99      
O           156.72      155.78      -44.51      
H           161.66      157.18      -42.6       
H           160.71      159.3       -43.32      
C           160.69      157.12      -43.0       
C           158.77      156.01      -43.88      
C           160.07      155.93      -43.25      
C           153.22      173.48      -47.61      
C           154.46      173.32      -46.99      
S           152.55      171.97      -48.05      
C           156.4       167.88      -45.51      
C           155.39      167.88      -46.43      
C           154.93      166.73      -47.02      
C           155.21      165.52      -46.4       
C           156.2       165.48      -45.38      
C           156.85      166.69      -45.02      
C           154.7       164.14      -46.72      
C           155.61      163.28      -45.85      
C           156.5       164.09      -45.02      
C           156.99      169.28      -45.18      
C           156.0       170.12      -45.98      
C           155.12      169.27      -46.71      
C           155.73      161.94      -45.87      
C           156.77      161.37      -45.13      
C           157.6       162.2       -44.35      
C           157.48      163.55      -44.22      
C           155.96      171.5       -46.09      
C           154.84      172.0       -46.81      
C           153.93      171.11      -47.52      
C           154.08      169.73      -47.54      
C           154.93      163.72      -48.21      
C           153.23      163.94      -46.26      
C           158.49      169.33      -45.71      
C           156.94      169.62      -43.66      
H           157.63      166.68      -44.29      
H           154.12      166.74      -47.77      
H           156.68      172.13      -45.55      
H           153.38      169.09      -48.04      
H           155.06      161.3       -46.37      
H           158.14      164.14      -43.58      
H           154.19      164.16      -48.85      
H           154.77      162.6       -48.24      
H           155.8826    164.04475   -48.62857   
H           153.27      164.27      -45.22      
H           152.98      162.89      -46.21      
H           152.49003   164.52344   -46.80786   
H           157.82      169.35      -43.12      
H           156.93      170.72      -43.36      
H           156.11052   169.1312    -43.14898   
H           159.13      168.58      -45.32      
H           158.98      170.27      -45.38      
H           158.52603   169.38045   -46.79824   
H           156.63      159.23      -45.73      
H           155.12      174.12      -46.71      
S           158.87      161.22      -43.6       
C           157.13      159.98      -45.12      
C           158.22      159.75      -44.38      
C           151.27      177.2       -48.86      
C           152.05      177.14      -47.66      
C           151.25      176.06      -49.57      
N           152.46      178.13      -46.85      
N           153.36      176.16      -46.14      
O           153.23      177.52      -45.92      
H           151.71      173.96      -49.76      
H           150.86      176.09      -50.58      
C           151.8       174.83      -49.12      
C           152.66      175.92      -47.25      
C           152.48      174.68      -47.95      
C           145.21      190.39      -56.8       
C           145.27      189.15      -57.4       
S           146.19      190.48      -55.32      
C           148.07      184.43      -54.85      
C           148.26      185.58      -54.17      
C           148.95      185.65      -52.94      
C           149.31      184.53      -52.29      
C           149.09      183.29      -52.91      
C           148.57      183.19      -54.22      
C           149.84      184.37      -50.91      
C           149.96      182.8       -50.78      
C           149.47      182.21      -51.97      
C           147.33      184.67      -56.2       
C           147.0       186.16      -56.0       
C           147.56      186.67      -54.84      
C           150.43      182.01      -49.73      
C           150.49      180.63      -49.93      
C           149.94      180.08      -51.13      
C           149.46      180.86      -52.14      
C           146.3       186.91      -56.9       
C           146.04      188.27      -56.67      
C           146.48      188.75      -55.4       
C           147.36      188.01      -54.61      
C           148.84      184.97      -49.87      
C           151.21      185.04      -50.67      
C           146.08      183.86      -56.53      
C           148.33      184.64      -57.4       
H           148.28      182.21      -54.69      
H           148.86      186.69      -52.43      
H           146.08      186.4       -57.82      
H           147.99      188.4       -53.82      
H           150.84      182.44      -48.82      
H           149.07      180.34      -52.97      
H           149.34      185.55      -49.12      
H           148.15      185.61      -50.43      
H           148.26898   184.21597   -49.32827   
H           151.04      186.14      -50.72      
H           151.49      184.85      -49.73      
H           151.94907   184.71394   -51.40182   
H           147.84      184.48      -58.31      
H           148.84      185.57      -57.49      
H           149.04213   183.81506   -57.42115   
H           146.41      182.8       -56.5       
H           145.67      184.07      -57.58      
H           145.30769   183.93723   -55.76471   
H           151.32      179.78      -48.08      
H           144.82      188.84      -58.36      
S           150.2       178.34      -51.16      
C           150.85      179.62      -48.98      
C           150.69      178.4       -49.46      
C           142.53      193.81      -57.6       
C           142.8       192.81      -58.56      
C           143.26      193.64      -56.42      
N           142.35      192.78      -59.83      
N           143.77      191.07      -59.57      
O           142.9       191.62      -60.35      
H           144.54      192.52      -55.15      
H           143.31      194.5       -55.76      
C           144.16      192.58      -56.17      
C           143.65      191.68      -58.35      
C           144.39      191.61      -57.07      
H           102.65      43.78       31.28       
H           141.95      194.7       -57.86      
