612

C           124.81      24.35       20.47       
C           124.48      25.46       21.16       
S           126.51      24.27       20.39       
C           128.1       30.32       21.84       
C           128.66      29.16       21.28       
C           129.86      29.26       20.56       
C           130.65      30.39       20.73       
C           130.15      31.49       21.44       
C           128.82      31.51       21.95       
C           132.02      30.71       20.16       
C           132.27      32.1        20.73       
C           131.16      32.5        21.44       
C           126.76      29.97       22.6        
C           126.48      28.6        21.86       
C           127.72      28.07       21.3        
C           133.33      32.93       20.57       
C           133.31      34.2        21.15       
C           132.2       34.61       21.9        
C           131.11      33.75       22.07       
C           125.36      27.83       21.86       
C           125.47      26.47       21.35       
C           126.66      25.94       20.88       
C           127.81      26.76       20.83       
C           132.03      30.8        18.66       
C           133.13      29.82       20.74       
C           125.59      30.96       22.3        
C           126.89      29.66       24.13       
H           128.45      32.38       22.41       
H           130.23      28.37       20.05       
H           124.36      28.18       22.22       
H           128.72      26.37       20.38       
H           134.15      32.55       20.03       
H           130.38      33.95       22.82       
H           131.92      29.79       18.19       
H           133.0       31.18       18.33       
H           131.3166    31.49884    18.22322    
H           133.05      29.7        21.76       
H           134.03      30.44       20.65       
H           133.17069   28.8096     20.33313    
H           125.91      29.94       24.64       
H           127.02      28.62       24.26       
H           127.74546   30.16486    24.57877    
H           125.59      31.94       22.82       
H           124.69      30.38       22.55       
H           125.52456   31.22902    21.24575    
H           135.26      35.02       20.58       
H           123.44      25.6        21.38       
S           132.48      36.2        22.58       
C           134.37      35.16       21.14       
C           134.09      36.27       21.83       
C           122.47      20.89       18.93       
C           122.11      21.61       20.11       
C           123.56      21.39       18.33       
N           121.0       21.56       20.86       
N           122.33      23.21       21.72       
O           121.26      22.39       21.91       
H           125.17      22.8        18.25       
H           123.88      20.95       17.41       
C           124.29      22.53       18.8        
C           122.89      22.72       20.64       
C           124.01      23.2        19.97       
C           114.98      9.96        8.67        
C           116.38      10.23       8.66        
S           114.27      10.8        10.0        
C           118.91      14.36       12.34       
C           117.52      14.14       12.65       
C           116.83      14.78       13.67       
C           117.59      15.67       14.45       
C           118.95      15.82       14.21       
C           119.59      15.32       13.06       
C           117.11      16.79       15.38       
C           118.44      17.28       15.95       
C           119.49      16.74       15.27       
C           119.39      13.64       11.05       
C           118.24      12.67       10.82       
C           117.15      13.01       11.71       
C           118.62      18.26       16.88       
C           119.86      18.67       17.22       
C           120.95      18.16       16.49       
C           120.72      17.28       15.39       
C           118.06      11.83       9.74        
C           116.8       11.15       9.66        
C           115.74      11.54       10.54       
C           115.93      12.39       11.62       
C           116.14      16.22       16.47       
C           116.5       18.02       14.64       
C           120.68      12.86       11.29       
C           119.52      14.59       9.89        
H           120.64      15.44       13.02       
H           115.74      14.62       13.9        
H           118.82      11.64       8.99        
H           115.11      12.64       12.31       
H           117.77      18.73       17.42       
H           121.57      16.92       14.85       
H           115.33      15.8        15.91       
H           115.73      17.0        17.08       
H           116.54224   15.49315    17.17568    
H           117.3       18.59       14.13       
H           116.26      18.78       15.33       
H           115.66673   17.79341    13.97485    
H           120.59      15.03       9.85        
H           119.32      14.12       8.94        
H           118.77558   15.38502    9.84664     
H           121.23      12.81       10.4        
H           121.31      13.53       11.9        
H           120.55528   11.88425    11.75953    
H           119.71      20.12       18.95       
H           117.02      9.89        7.85        
S           122.47      18.79       17.06       
C           120.38      19.63       18.2        
C           121.7       19.87       18.19       
C           112.58      8.48        5.34        
C           113.85      8.03        5.64        
C           112.09      9.14        6.45        
N           114.63      7.3         4.84        
N           115.82      7.8         6.68        
O           115.85      7.16        5.48        
H           112.33      10.25       8.13        
H           111.18      9.7         6.28        
C           112.85      9.54        7.54        
C           114.61      8.29        6.85        
C           114.08      9.17        7.84        
C           106.59      12.19       -9.38       
C           106.07      12.75       -8.25       
S           107.56      10.79       -9.07       
C           107.44      10.55       -2.77       
C           107.94      9.88        -3.87       
C           109.02      8.98        -3.75       
C           109.61      8.79        -2.51       
C           108.97      9.43        -1.39       
C           107.95      10.33       -1.54       
C           110.71      7.85        -2.0        
C           110.67      8.06        -0.44       
C           109.71      9.06        -0.21       
C           106.27      11.51       -3.28       
C           106.52      11.46       -4.76       
C           107.39      10.41       -5.12       
C           111.62      7.67        0.5         
C           111.44      8.13        1.85        
C           110.34      9.07        2.1         
C           109.57      9.61        1.08        
C           106.0       12.26       -5.71       
C           106.38      12.04       -7.02       
C           107.24      11.01       -7.34       
C           107.69      10.1        -6.42       
C           112.19      8.22        -2.55       
C           110.36      6.34        -2.42       
C           106.22      12.88       -2.56       
C           104.96      10.76       -2.89       
H           107.45      10.81       -0.73       
H           109.36      8.46        -4.66       
H           105.18      13.04       -5.56       
H           108.2       9.14        -6.66       
H           112.41      6.9         0.27        
H           108.79      10.29       1.2         
H           112.89      7.62        -2.09       
H           112.26      7.91        -3.58       
H           112.45053   9.24765     -2.29671    
H           110.3       6.37        -3.52       
H           111.1       5.64        -2.11       
H           109.43054   5.90873     -2.04822    
H           105.24      9.84        -3.25       
H           104.98      10.58       -1.78       
H           104.0452    11.16111    -3.32629    
H           105.48      13.63       -2.97       
H           105.93      12.84       -1.52       
H           107.16781   13.41135    -2.64616    
H           113.03      7.12        2.83        
H           105.47      13.66       -8.32       
S           110.56      9.56        3.76        
C           112.21      7.8         2.98        
C           111.89      8.42        4.09        
C           107.13      14.48       -13.02      
C           106.73      13.13       -13.09      
C           107.35      14.98       -11.78      
N           106.44      12.28       -14.12      
N           106.12      11.1        -12.21      
O           106.09      11.06       -13.58      
H           107.33      14.79       -9.68       
H           107.78      15.97       -11.67      
C           107.15      14.17       -10.6       
C           106.5       12.38       -11.9       
C           106.75      12.89       -10.6       
C           107.16      25.61       -25.14      
C           106.34      24.51       -25.26      
S           108.33      25.48       -23.92      
C           106.84      19.89       -21.23      
C           107.77      21.03       -21.2       
C           108.63      21.14       -20.03      
C           108.56      20.18       -19.0       
C           107.7       19.09       -19.18      
C           106.93      18.9        -20.32      
C           109.03      20.34       -17.57      
C           108.41      19.07       -16.93      
C           107.72      18.3        -17.94      
C           106.08      20.1        -22.52      
C           106.44      21.55       -22.93      
C           107.6       21.95       -22.2       
C           108.34      18.7        -15.62      
C           107.89      17.36       -15.38      
C           107.34      16.52       -16.43      
C           107.05      17.13       -17.66      
C           105.99      22.35       -24.0       
C           106.66      23.54       -24.29      
C           107.73      23.91       -23.5       
C           108.22      23.19       -22.43      
C           108.24      21.65       -17.06      
C           110.57      20.49       -17.37      
C           104.55      20.02       -22.36      
C           106.54      19.18       -23.64      
H           106.12      18.2        -20.23      
H           109.23      22.07       -19.88      
H           105.19      22.01       -24.63      
H           109.04      23.5        -21.86      
H           108.83      19.22       -14.81      
H           106.48      16.61       -18.49      
H           108.85      22.55       -17.39      
H           107.2       21.8        -17.47      
H           108.24717   21.77194    -15.97687   
H           110.83      21.32       -17.96      
H           110.92      20.73       -16.42      
H           111.08731   19.63035    -17.79602   
H           105.84      19.34       -24.43      
H           107.54      19.39       -24.04      
H           106.55429   18.12264    -23.37566   
H           104.26      18.99       -22.05      
H           103.99      20.16       -23.26      
H           104.16363   20.65927    -21.56618   
H           108.14      17.07       -13.19      
H           105.47      24.33       -25.95      
S           106.83      14.98       -15.77      
C           107.77      16.67       -14.15      
C           107.32      15.38       -14.15      
C           107.9       29.02       -27.74      
C           107.32      27.79       -28.28      
C           108.3       28.9        -26.49      
N           106.98      27.41       -29.5       
N           106.57      25.65       -28.2       
O           106.48      26.12       -29.46      
H           108.4       27.91       -24.68      
H           108.79      29.73       -26.01      
C           108.01      27.81       -25.66      
C           107.02      26.7        -27.45      
C           107.38      26.74       -26.05      
C           114.06      42.61       -34.74      
C           114.15      42.43       -33.44      
S           112.84      41.66       -35.61      
C           111.18      37.74       -30.8       
C           110.8       37.94       -32.18      
C           109.84      37.04       -32.76      
C           109.4       35.99       -32.03      
C           109.76      35.82       -30.66      
C           110.59      36.73       -30.04      
C           108.44      34.87       -32.59      
C           108.51      33.96       -31.35      
C           109.15      34.5        -30.23      
C           112.01      38.91       -30.27      
C           112.27      39.69       -31.62      
C           111.54      39.11       -32.69      
C           107.93      32.7        -31.25      
C           108.14      31.93       -30.07      
C           108.83      32.53       -28.99      
C           109.26      33.84       -29.08      
C           113.17      40.7        -31.78      
C           113.27      41.34       -33.03      
C           112.49      40.8        -34.07      
C           111.63      39.67       -33.95      
C           108.99      34.08       -33.78      
C           106.99      35.4        -32.9       
C           113.38      38.57       -29.64      
C           111.25      39.86       -29.29      
H           111.01      36.49       -29.1       
H           109.44      37.17       -33.74      
H           113.66      41.13       -30.96      
H           111.08      39.41       -34.83      
H           107.43      32.32       -32.15      
H           109.83      34.34       -28.31      
H           108.98      34.53       -34.73      
H           108.34      33.18       -33.91      
H           110.03869   33.81414    -33.64707   
H           106.93      35.94       -33.87      
H           106.29      34.58       -33.02      
H           106.59898   36.04239    -32.11098   
H           111.52      39.65       -28.25      
H           111.48      40.91       -29.56      
H           110.17853   39.86714    -29.49001   
H           113.9       39.49       -29.63      
H           113.39      38.31       -28.59      
H           113.99566   37.80599    -30.11472   
H           107.41      29.84       -30.34      
H           114.87      42.89       -32.76      
S           109.11      31.48       -27.59      
C           107.83      30.57       -29.71      
C           108.15      30.26       -28.42      
C           117.39      44.39       -37.1       
C           117.14      44.75       -35.73      
C           116.37      43.59       -37.54      
N           117.94      45.47       -35.0       
N           116.1       44.99       -33.73      
O           117.33      45.54       -33.78      
H           114.62      42.31       -37.17      
H           116.5       43.1        -38.52      
C           115.27      43.12       -36.8       
C           115.99      44.34       -34.92      
C           114.99      43.45       -35.52      
C           128.59      47.48       -48.95      
C           127.32      47.14       -49.05      
S           129.27      47.25       -47.42      
C           123.74      45.54       -44.42      
C           125.02      45.94       -44.01      
C           125.35      45.83       -42.63      
C           124.32      45.6        -41.71      
C           123.06      45.29       -42.19      
C           122.75      45.18       -43.52      
C           124.43      45.67       -40.19      
C           122.92      45.38       -39.84      
C           122.16      45.23       -41.04      
C           123.49      45.99       -45.84      
C           124.94      46.13       -46.37      
C           125.8       46.16       -45.24      
C           122.24      45.31       -38.62      
C           120.8       44.96       -38.65      
C           120.14      44.78       -39.87      
C           120.82      44.83       -41.04      
C           125.39      46.33       -47.6       
C           126.71      46.7        -47.83      
C           127.67      46.72       -46.7       
C           127.18      46.44       -45.37      
C           124.89      47.08       -39.67      
C           125.42      44.58       -39.66      
C           122.75      47.33       -45.8       
C           122.67      44.9        -46.55      
H           121.73      45.1        -43.93      
H           126.36      46.04       -42.29      
H           124.63      46.51       -48.29      
H           127.73      46.41       -44.44      
H           122.84      45.32       -37.76      
H           120.35      44.59       -42.02      
H           125.02      47.0        -38.62      
H           125.78      47.45       -40.13      
H           124.07807   47.79934    -39.77683   
H           126.29      45.12       -39.53      
H           125.1       44.31       -38.6       
H           125.58368   43.70208    -40.28496   
H           121.54      44.87       -46.33      
H           122.86      44.99       -47.59      
H           122.99273   43.87443    -46.3707    
H           121.72      47.15       -45.55      
H           123.09      47.87       -44.91      
H           122.75738   47.89837    -46.73006   
H           120.24      45.13       -36.47      
H           126.77      47.28       -49.96      
S           118.38      44.54       -39.61      
C           119.89      44.88       -37.53      
C           118.6       44.56       -37.88      
C           130.51      50.11       -52.06      
C           131.27      49.16       -51.29      
C           129.24      50.12       -51.7       
N           132.52      48.88       -51.4       
N           131.56      47.44       -49.99      
O           132.72      47.79       -50.58      
H           127.61      49.39       -50.45      
H           128.64      50.85       -52.3       
C           128.62      49.28       -50.67      
C           130.61      48.23       -50.35      
C           129.21      48.23       -50.02      
C           138.39      59.27       -63.23      
C           137.17      59.62       -62.61      
S           139.02      57.78       -62.59      
C           134.9       56.33       -58.12      
C           135.99      55.75       -58.76      
C           136.33      54.47       -58.61      
C           135.52      53.75       -57.65      
C           134.43      54.38       -57.02      
C           134.17      55.71       -57.16      
C           135.49      52.2        -57.35      
C           134.23      52.14       -56.43      
C           133.68      53.45       -56.18      
C           134.56      57.65       -58.78      
C           135.66      57.78       -59.76      
C           136.5       56.67       -59.75      
C           133.7       51.07       -55.82      
C           132.74      51.31       -54.82      
C           132.18      52.57       -54.58      
C           132.59      53.64       -55.3       
C           135.73      58.73       -60.68      
C           136.77      58.64       -61.63      
C           137.68      57.56       -61.54      
C           137.61      56.52       -60.62      
C           136.81      51.81       -56.67      
C           135.31      51.45       -58.72      
C           134.53      58.79       -57.74      
C           133.18      57.58       -59.43      
H           133.37      56.19       -56.65      
H           137.21      54.08       -59.17      
H           135.06      59.61       -60.61      
H           138.24      55.65       -60.64      
H           134.15      50.12       -56.03      
H           132.12      54.61       -55.08      
H           136.73      50.75       -56.45      
H           137.62      52.0        -57.38      
H           136.95099   52.35986    -55.73947   
H           136.23      51.66       -59.32      
H           135.35      50.38       -58.55      
H           134.39586   51.70065    -59.25816   
H           132.61      57.58       -58.53      
H           132.8       58.4        -60.08      
H           132.99959   56.64327    -59.95734   
H           133.62      58.73       -57.13      
H           134.56      59.82       -58.2       
H           135.27035   58.62627    -56.95694   
H           132.4       49.31       -54.14      
H           136.68      60.54       -62.8       
S           131.0       52.62       -53.3       
C           132.13      50.37       -53.99      
C           131.19      50.87       -53.1       
C           139.94      60.81       -67.08      
C           138.97      61.54       -66.32      
C           140.5       59.8        -66.36      
N           138.25      62.61       -66.7       
N           137.43      61.8        -64.79      
O           137.3       62.71       -65.78      
H           140.64      58.53       -64.62      
H           141.33      59.21       -66.75      
C           140.05      59.32       -65.08      
C           138.47      61.05       -65.09      
C           139.01      59.91       -64.43      
C           140.57      62.73       -82.95      
C           141.15      61.63       -82.39      
S           140.59      64.11       -81.88      
C           142.76      61.44       -76.51      
C           142.39      62.72       -77.04      
C           142.16      63.76       -76.1       
C           142.04      63.42       -74.78      
C           142.21      62.12       -74.34      
C           142.55      61.1        -75.19      
C           141.45      64.29       -73.67      
C           141.61      63.33       -72.44      
C           142.06      62.09       -72.84      
C           142.73      60.45       -77.67      
C           142.31      61.32       -78.82      
C           142.11      62.63       -78.38      
C           140.94      63.5        -71.22      
C           140.85      62.43       -70.34      
C           141.39      61.19       -70.76      
C           141.98      61.02       -72.01      
C           142.07      60.89       -80.11      
C           141.61      61.85       -81.02      
C           141.43      63.18       -80.58      
C           141.63      63.59       -79.24      
C           140.0       64.74       -73.91      
C           142.33      65.55       -73.6       
C           141.76      59.27       -77.5       
C           144.18      59.89       -77.93      
H           142.72      60.1        -74.81      
H           141.85      64.72       -76.44      
H           142.09      59.83       -80.34      
H           141.32      64.6        -78.95      
H           140.47      64.45       -70.91      
H           142.44      60.08       -72.25      
H           139.68      65.63       -73.37      
H           139.79      65.08       -74.93      
H           139.2588    63.94233    -73.86059   
H           142.4       65.97       -74.59      
H           141.8       66.23       -72.96      
H           143.34624   65.35282    -73.25872   
H           144.32      58.82       -78.13      
H           144.52      60.52       -78.76      
H           144.93338   60.16265    -77.19097   
H           142.12      58.59       -76.67      
H           141.7       58.64       -78.37      
H           140.72367   59.54539    -77.30433   
H           139.95      63.26       -68.52      
H           141.25      60.63       -82.88      
S           141.31      60.02       -69.45      
C           140.28      62.41       -69.02      
C           140.48      61.21       -68.36      
C           137.29      63.0        -85.87      
C           137.83      61.73       -85.56      
C           137.95      64.1        -85.24      
N           137.61      60.51       -86.05      
N           139.33      60.39       -84.56      
O           138.53      59.72       -85.42      
H           139.31      64.94       -83.89      
H           137.51      65.07       -85.34      
C           139.02      64.02       -84.38      
C           139.0       61.68       -84.68      
C           139.65      62.85       -84.07      
C           123.53      68.42       -94.1       
C           124.18      69.03       -93.07      
S           124.24      66.82       -94.3       
C           129.18      66.95       -90.13      
C           128.55      65.98       -90.96      
C           129.19      64.83       -91.24      
C           130.4       64.53       -90.55      
C           130.95      65.42       -89.64      
C           130.37      66.67       -89.48      
C           131.0       63.13       -90.37      
C           132.27      63.51       -89.55      
C           132.2       64.84       -89.1       
C           128.22      68.11       -89.89      
C           127.11      67.76       -90.92      
C           127.33      66.55       -91.56      
C           133.19      62.63       -89.07      
C           134.17      63.03       -88.12      
C           134.09      64.39       -87.69      
C           133.08      65.2        -88.11      
C           126.12      68.64       -91.37      
C           125.23      68.24       -92.43      
C           125.42      66.99       -93.05      
C           126.44      66.09       -92.57      
C           131.32      62.57       -91.76      
C           130.17      62.24       -89.39      
C           129.07      69.39       -90.21      
C           127.72      68.16       -88.44      
H           130.89      67.39       -88.87      
H           128.73      64.12       -91.93      
H           125.95      69.63       -90.85      
H           126.62      65.17       -93.14      
H           133.12      61.57       -89.33      
H           133.03      66.19       -87.67      
H           130.44      62.57       -92.3       
H           131.83      61.59       -91.64      
H           131.95523   63.24053    -92.33877   
H           130.15      62.68       -88.44      
H           130.69      61.28       -89.37      
H           129.12211   62.0508     -89.62286   
H           128.5       68.63       -87.83      
H           126.82      68.77       -88.39      
H           127.46016   67.2049     -87.98352   
H           129.86      69.52       -89.44      
H           128.44      70.23       -90.1       
H           129.50525   69.41854    -91.20892   
H           135.72      61.43       -88.01      
H           123.85      69.99       -92.78      
S           135.38      64.77       -86.56      
C           135.36      62.42       -87.66      
C           136.12      63.23       -86.8       
C           120.47      69.74       -96.87      
C           121.07      70.69       -95.99      
C           120.89      68.39       -96.75      
N           120.91      71.93       -95.84      
N           122.26      71.28       -94.26      
O           121.62      72.37       -94.72      
H           122.14      66.83       -95.86      
H           120.4       67.65       -97.35      
C           121.91      67.94       -95.87      
C           121.98      70.21       -94.98      
C           122.45      68.83       -94.95      
C           106.99      72.99       -105.84     
C           107.54      71.8        -105.8      
S           107.82      74.12       -104.78     
C           112.7       70.7        -102.79     
C           112.25      72.0        -102.79     
C           113.03      72.98       -102.12     
C           114.19      72.57       -101.49     
C           114.56      71.22       -101.44     
C           113.86      70.29       -102.1      
C           115.28      73.46       -100.9      
C           116.3       72.36       -100.52     
C           115.82      71.06       -100.77     
C           111.81      69.76       -103.71     
C           110.72      70.84       -104.15     
C           111.05      72.13       -103.61     
C           117.45      72.5        -99.8       
C           118.11      71.36       -99.29      
C           117.58      70.08       -99.52      
C           116.49      69.92       -100.37     
C           109.58      70.63       -104.86     
C           108.79      71.77       -105.1      
C           109.15      73.02       -104.56     
C           110.22      73.21       -103.76     
C           114.61      74.17       -99.69      
C           115.93      74.42       -101.94     
C           111.17      68.74       -102.83     
C           112.53      69.22       -104.99     
H           114.35      69.37       -102.25     
H           112.69      73.98       -102.3      
H           109.23      69.64       -105.18     
H           110.46      74.19       -103.34     
H           117.91      73.47       -99.71      
H           116.03      68.92       -100.4      
H           113.84      74.92       -99.95      
H           114.23      73.41       -99.06      
H           115.26405   74.75447    -99.04291   
H           115.49      75.34       -102.08     
H           116.78      74.79       -101.47     
H           116.17247   73.94198    -102.88911  
H           113.26      68.43       -104.74     
H           111.84      68.57       -105.57     
H           112.9387    69.97286    -105.66399  
H           112.06      68.07       -102.67     
H           110.38      68.26       -103.39     
H           110.86373   69.10196    -101.84853  
H           119.68      72.19       -97.99      
H           107.15      70.95       -106.29     
S           118.34      68.88       -98.45      
C           119.23      71.26       -98.41      
C           119.54      70.08       -97.94      
C           103.47      74.4        -108.08     
C           103.73      72.96       -108.1      
C           104.29      75.09       -107.2      
N           103.11      71.98       -108.73     
N           104.76      71.14       -107.42     
O           103.74      70.83       -108.24     
H           105.86      75.28       -105.89     
H           104.09      76.14       -107.06     
C           105.33      74.57       -106.44     
C           104.83      72.43       -107.31     
C           105.75      73.34       -106.48     
H           134.88      37.02       22.15       
H           103.07      74.9        -108.98     
