612

C           126.47      28.88       3.01        
C           127.79      28.7        3.48        
S           125.64      27.33       2.74        
C           130.26      23.18       4.03        
C           128.91      23.14       3.58        
C           128.27      22.03       3.09        
C           129.05      20.86       2.97        
C           130.42      20.87       3.4         
C           131.01      22.06       3.91        
C           128.74      19.63       2.16        
C           130.01      18.85       2.17        
C           131.01      19.6        2.93        
C           130.73      24.58       4.36        
C           129.4       25.34       4.02        
C           128.4       24.5        3.54        
C           130.3       17.72       1.48        
C           131.63      17.4        1.37        
C           132.61      18.07       2.14        
C           132.31      19.17       2.96        
C           129.23      26.71       3.95        
C           128.09      27.25       3.48        
C           127.01      26.36       3.24        
C           127.19      24.98       3.16        
C           128.06      19.79       0.77        
C           127.84      18.69       3.04        
C           131.93      25.05       3.53        
C           131.04      24.73       5.88        
H           132.11      22.1        4.11        
H           127.31      22.08       2.51        
H           130.02      27.35       4.34        
H           126.4       24.27       2.86        
H           129.61      17.02       0.99        
H           133.13      19.73       3.42        
H           127.02      20.1        0.9         
H           127.96      18.75       0.34        
H           128.66164   20.4395     0.13417     
H           128.62      18.33       3.75        
H           127.49      17.78       2.48        
H           126.92481   19.09039    3.47614     
H           131.28      25.77       6.13        
H           130.15      24.44       6.49        
H           131.82812   24.05652    6.21674     
H           132.75      24.35       3.58        
H           132.37      26.02       3.9         
H           131.68059   25.0985     2.47003     
H           131.79      15.77       -0.21       
H           128.44      29.53       3.74        
S           134.3       17.53       1.75        
C           132.28      16.44       0.47        
C           133.62      16.47       0.49        
C           124.73      32.55       1.58        
C           125.76      32.65       2.52        
C           124.22      31.3        1.26        
N           126.35      33.63       3.16        
N           127.22      31.77       3.91        
O           127.23      33.06       4.04        
H           124.32      29.19       1.35        
H           123.4       31.18       0.48        
C           124.74      30.06       1.74        
C           126.29      31.44       3.0         
C           125.82      30.13       2.6         
C           118.83      43.57       -8.99       
C           118.12      42.66       -8.33       
S           120.37      43.9        -8.2        
C           120.21      39.04       -4.09       
C           121.16      40.02       -4.51       
C           122.53      40.07       -4.07       
C           122.86      39.09       -3.13       
C           121.86      38.19       -2.67       
C           120.52      38.16       -3.11       
C           124.18      38.89       -2.4        
C           123.71      37.76       -1.44       
C           122.47      37.21       -1.77       
C           118.88      39.05       -4.85       
C           119.05      40.42       -5.5        
C           120.45      40.8        -5.5        
C           124.45      37.11       -0.46       
C           124.04      35.81       -0.01       
C           122.86      35.24       -0.49       
C           122.03      35.93       -1.37       
C           118.3       40.99       -6.5        
C           118.84      41.99       -7.31       
C           120.17      42.5        -7.18       
C           120.95      41.92       -6.22       
C           124.69      40.14       -1.66       
C           125.27      38.24       -3.25       
C           117.67      39.25       -3.86       
C           118.63      37.98       -5.96       
H           119.81      37.45       -2.69       
H           123.23      40.78       -4.53       
H           117.29      40.63       -6.67       
H           121.97      42.26       -6.12       
H           125.43      37.43       -0.13       
H           121.15      35.47       -1.72       
H           125.13      40.88       -2.31       
H           125.51      39.94       -0.98       
H           123.92767   40.5974     -1.02934    
H           124.93      37.2        -3.4        
H           126.16      38.26       -2.7        
H           125.47996   38.76128    -4.18396    
H           117.7       38.33       -6.49       
H           119.47      37.99       -6.55       
H           118.61564   36.94602    -5.61534    
H           116.68      39.03       -4.35       
H           117.76      38.56       -3.08       
H           117.65585   40.24771    -3.42129    
H           125.76      35.2        1.24        
H           117.16      42.33       -8.66       
S           122.63      33.63       0.15        
C           124.79      34.96       0.87        
C           124.25      33.72       0.91        
C           117.61      45.9        -12.6       
C           116.72      45.16       -11.78      
C           118.85      45.86       -12.09      
N           115.35      45.05       -11.87      
N           116.04      43.91       -10.07      
O           114.94      44.27       -10.82      
H           120.31      45.09       -10.78      
H           119.61      46.35       -12.65      
C           119.2       45.1        -10.97      
C           117.09      44.51       -10.58      
C           118.39      44.47       -10.08      
C           112.65      54.4        -26.12      
C           113.73      54.88       -25.4       
S           112.04      52.98       -25.35      
C           116.06      51.69       -20.62      
C           114.85      51.21       -21.18      
C           114.2       50.01       -20.81      
C           114.7       49.41       -19.67      
C           115.88      49.83       -19.01      
C           116.57      50.98       -19.47      
C           113.94      48.43       -18.76      
C           115.04      48.2        -17.71      
C           116.18      48.95       -17.93      
C           116.45      53.03       -21.32      
C           115.37      53.06       -22.4       
C           114.46      52.04       -22.26      
C           114.95      47.39       -16.59      
C           116.01      47.21       -15.74      
C           117.14      47.97       -16.01      
C           117.26      48.84       -17.08      
C           115.22      54.07       -23.39      
C           114.17      53.96       -24.32      
C           113.29      52.87       -24.17      
C           113.41      51.92       -23.19      
C           113.45      47.06       -19.41      
C           112.71      49.07       -18.05      
C           117.88      52.84       -21.94      
C           116.33      54.35       -20.56      
H           117.38      51.42       -18.97      
H           113.19      49.76       -21.24      
H           115.87      54.96       -23.48      
H           112.74      51.05       -23.2       
H           114.1       46.74       -16.45      
H           118.22      49.3        -17.29      
H           112.92      46.46       -18.65      
H           112.7       47.37       -20.12      
H           114.30961   46.58979    -19.88756   
H           111.94      49.1        -18.83      
H           112.3       48.45       -17.27      
H           112.81354   50.10543    -17.72556   
H           117.29      54.38       -19.98      
H           116.37      55.21       -21.28      
H           115.46265   54.32776    -19.90022   
H           118.35      53.84       -22.04      
H           118.51      52.47       -21.12      
H           117.87315   52.25128    -22.85731   
H           115.33      45.59       -14.52      
H           114.27      55.75       -25.67      
S           118.21      47.67       -14.71      
C           116.08      46.3        -14.66      
C           117.18      46.5        -13.88      
C           109.94      55.2        -29.46      
C           110.91      54.19       -29.59      
C           110.09      56.02       -28.39      
N           111.06      53.24       -30.51      
N           112.59      52.89       -28.83      
O           112.16      52.54       -30.09      
H           110.94      56.46       -26.44      
H           109.39      56.91       -28.25      
C           111.0       55.81       -27.34      
C           111.9       54.01       -28.57      
C           111.94      54.81       -27.35      
C           109.78      63.57       -43.05      
C           109.45      64.09       -41.82      
S           109.73      61.82       -43.04      
C           107.6       60.64       -37.11      
C           107.97      59.91       -38.31      
C           108.29      58.55       -38.17      
C           108.09      57.91       -37.0       
C           107.78      58.64       -35.84      
C           107.56      59.98       -35.86      
C           108.55      56.53       -36.67      
C           108.33      56.45       -35.16      
C           107.9       57.74       -34.71      
C           107.71      62.18       -37.39      
C           108.1       62.19       -38.84      
C           108.13      60.93       -39.37      
C           108.57      55.41       -34.23      
C           108.54      55.7        -32.83      
C           108.23      57.04       -32.41      
C           107.94      58.03       -33.33      
C           108.36      63.31       -39.58      
C           108.94      63.1        -40.88      
C           109.04      61.74       -41.37      
C           108.66      60.62       -40.63      
C           110.03      56.35       -37.04      
C           107.74      55.35       -37.25      
C           108.85      62.8        -36.55      
C           106.43      63.05       -37.14      
H           107.28      60.46       -34.94      
H           108.65      58.0        -39.06      
H           108.17      64.29       -39.19      
H           108.66      59.63       -41.06      
H           108.75      54.46       -34.52      
H           107.56      58.99       -33.01      
H           110.14      55.51       -37.66      
H           110.2       57.14       -37.72      
H           110.72846   56.43466    -36.20749   
H           107.8       55.21       -38.3       
H           108.03      54.46       -36.68      
H           106.66601   55.48514    -37.12198   
H           106.63      64.14       -37.19      
H           105.84      62.93       -37.99      
H           105.80828   62.79274    -36.28246   
H           108.48      62.82       -35.53      
H           109.01      63.81       -36.83      
H           109.7671    62.21248    -36.59299   
H           109.4       53.94       -31.87      
H           109.4       65.2        -41.63      
S           108.4       57.2        -30.72      
C           108.94      54.89       -31.79      
C           109.06      55.53       -30.56      
C           110.68      65.89       -46.8       
C           109.8       66.43       -45.76      
C           111.05      64.58       -46.54      
N           109.07      67.53       -45.82      
N           108.57      66.4        -43.88      
O           108.34      67.5        -44.67      
H           111.12      62.84       -45.25      
H           111.66      64.0        -47.24      
C           110.69      63.83       -45.31      
C           109.44      65.68       -44.55      
C           109.98      64.31       -44.28      
C           112.9       64.93       -62.41      
C           113.69      64.57       -61.39      
S           111.56      65.91       -61.8       
C           113.68      66.96       -55.86      
C           112.49      67.33       -56.61      
C           111.55      68.22       -56.06      
C           111.65      68.51       -54.69      
C           112.62      67.87       -53.9       
C           113.66      67.18       -54.48      
C           110.56      69.05       -53.78      
C           111.05      68.6        -52.39      
C           112.28      67.86       -52.51      
C           114.66      66.15       -56.69      
C           113.9       66.1        -57.98      
C           112.62      66.78       -57.97      
C           110.34      68.44       -51.22      
C           110.85      67.76       -50.07      
C           112.05      67.05       -50.26      
C           112.8       67.11       -51.41      
C           114.27      65.42       -59.1       
C           113.42      65.32       -60.2       
C           112.3       66.16       -60.24      
C           111.88      66.94       -59.13      
C           109.16      68.48       -54.05      
C           110.36      70.62       -53.76      
C           114.87      64.75       -56.09      
C           116.07      66.78       -57.02      
H           114.39      66.7        -53.79      
H           110.76      68.51       -56.68      
H           115.13      64.8        -59.1       
H           110.96      67.43       -59.08      
H           109.4       69.01       -51.06      
H           113.6       66.38       -51.58      
H           108.85      68.71       -55.09      
H           108.37      68.91       -53.42      
H           109.13813   67.40103    -53.8969    
H           109.48      70.87       -54.38      
H           110.18      71.05       -52.74      
H           111.24532   71.12191    -54.15038   
H           116.7       66.15       -57.71      
H           115.92      67.73       -57.52      
H           116.74679   66.89985    -56.17401   
H           115.66      64.25       -56.6       
H           115.26      64.93       -55.11      
H           113.95643   64.16995    -55.95949   
H           109.4       68.1        -48.43      
H           114.59      63.98       -61.55      
S           112.36      66.01       -48.86      
C           110.28      67.52       -48.81      
C           110.9       66.51       -48.12      
C           112.01      62.45       -66.03      
C           113.37      62.53       -65.44      
C           111.16      63.33       -65.34      
N           114.46      61.92       -65.74      
N           114.91      63.27       -63.92      
O           115.38      62.34       -64.76      
H           110.68      64.74       -63.81      
H           110.12      63.41       -65.63      
C           111.5       64.16       -64.22      
C           113.67      63.36       -64.26      
C           112.76      64.25       -63.68      
C           105.49      53.46       -78.5       
C           104.7       54.19       -77.55      
S           107.1       53.21       -77.74      
C           106.94      57.37       -72.88      
C           107.83      56.45       -73.47      
C           109.13      56.28       -73.02      
C           109.62      57.22       -72.12      
C           108.74      58.17       -71.54      
C           107.35      58.1        -71.78      
C           111.09      57.58       -71.78      
C           110.89      58.68       -70.73      
C           109.51      58.99       -70.52      
C           105.7       57.38       -73.66      
C           105.82      56.18       -74.52      
C           107.14      55.77       -74.55      
C           111.86      59.15       -69.87      
C           111.46      60.09       -68.87      
C           110.12      60.49       -68.77      
C           109.13      59.92       -69.61      
C           104.99      55.79       -75.5       
C           105.41      54.82       -76.48      
C           106.8       54.44       -76.46      
C           107.62      54.85       -75.44      
C           111.73      58.11       -73.08      
C           111.8       56.36       -71.19      
C           105.72      58.71       -74.41      
C           104.41      57.31       -72.83      
H           106.78      58.93       -71.33      
H           109.79      55.49       -73.48      
H           103.95      56.13       -75.45      
H           108.63      54.45       -75.3       
H           112.91      58.94       -69.99      
H           108.08      60.33       -69.57      
H           111.87      57.26       -73.78      
H           111.15      58.86       -73.55      
H           112.70346   58.5787     -72.93578   
H           112.27      55.79       -71.98      
H           112.58      56.67       -70.5       
H           111.13683   55.67566    -70.66087   
H           104.24      58.13       -72.17      
H           103.69      57.24       -73.62      
H           104.25981   56.37308    -72.2936    
H           104.91      59.38       -74.11      
H           106.66      59.29       -74.21      
H           105.60065   58.63979    -75.49117   
H           113.29      60.52       -67.86      
H           103.72      54.33       -77.72      
S           109.84      61.7        -67.54      
C           112.27      60.74       -67.88      
C           111.55      61.57       -67.08      
C           104.38      52.16       -82.47      
C           103.36      52.38       -81.53      
C           105.66      52.01       -81.95      
N           102.05      52.34       -81.65      
N           102.5       53.05       -79.53      
O           101.5       52.74       -80.46      
H           107.0       52.43       -80.31      
H           106.56      51.77       -82.59      
C           105.96      52.44       -80.59      
C           103.66      52.7        -80.17      
C           105.03      52.85       -79.73      
C           105.23      52.04       -99.04      
C           104.08      52.54       -98.41      
S           106.4       51.45       -97.84      
C           103.46      52.61       -92.27      
C           104.64      52.09       -92.78      
C           105.54      51.43       -91.97      
C           105.37      51.39       -90.58      
C           104.21      52.05       -90.08      
C           103.25      52.65       -90.88      
C           106.22      50.66       -89.56      
C           105.52      51.21       -88.35      
C           104.44      52.03       -88.67      
C           102.49      52.66       -93.43      
C           103.4       52.71       -94.64      
C           104.67      52.19       -94.26      
C           105.59      50.67       -87.06      
C           104.8       51.18       -86.03      
C           103.89      52.22       -86.31      
C           103.66      52.59       -87.64      
C           103.11      52.88       -95.97      
C           104.08      52.48       -96.96      
C           105.29      51.9        -96.54      
C           105.55      51.7        -95.2       
C           107.75      51.07       -89.7       
C           105.98      49.11       -89.72      
C           101.55      53.86       -93.38      
C           101.7       51.34       -93.6       
H           102.43      53.25       -90.51      
H           106.43      50.91       -92.41      
H           102.08      53.09       -96.28      
H           106.43      51.13       -94.96      
H           106.49      50.03       -86.85      
H           102.9       53.23       -87.91      
H           108.34      50.28       -89.21      
H           108.07      50.95       -90.69      
H           107.99117   52.05597    -89.30277   
H           106.75      48.61       -90.37      
H           106.11      48.74       -88.73      
H           104.96717   48.90169    -90.06479   
H           100.86      51.51       -94.25      
H           102.32      50.5        -93.89      
H           101.09594   51.17057    -92.70865   
H           100.91      53.71       -92.52      
H           100.95      54.02       -94.26      
H           102.1229    54.77947    -93.25976   
H           105.69      50.36       -84.12      
H           103.26      52.89       -98.91      
S           103.22      52.92       -84.87      
C           104.93      50.99       -84.6       
C           104.15      51.82       -83.85      
C           106.32      51.29       -103.31     
C           105.11      51.99       -102.98     
C           107.2       51.19       -102.2      
N           104.09      52.36       -103.76     
N           103.43      52.67       -101.59     
O           103.11      52.79       -102.91     
H           107.58      51.33       -100.16     
H           108.21      50.81       -102.34     
C           106.79      51.47       -100.86     
C           104.67      52.13       -101.6      
C           105.56      51.93       -100.5      
C           110.56      45.4        -118.3      
C           110.79      44.77       -117.12     
S           109.86      46.97       -117.9      
C           109.33      47.09       -111.69     
C           108.97      47.78       -112.79     
C           108.22      48.95       -112.62     
C           107.84      49.41       -111.32     
C           108.32      48.66       -110.23     
C           109.07      47.5        -110.35     
C           107.09      50.64       -110.86     
C           107.04      50.45       -109.36     
C           107.86      49.31       -109.03     
C           110.2       45.85       -112.07     
C           110.1       45.93       -113.6      
C           109.51      47.17       -113.98     
C           106.53      51.26       -108.33     
C           106.76      50.83       -106.98     
C           107.64      49.75       -106.73     
C           108.16      48.98       -107.74     
C           110.61      45.06       -114.59     
C           110.44      45.44       -115.91     
C           109.9       46.7        -116.23     
C           109.45      47.59       -115.27     
C           105.74      50.57       -111.56     
C           107.83      51.99       -111.12     
C           109.47      44.64       -111.44     
C           111.6       45.96       -111.32     
H           109.46      46.91       -109.55     
H           107.91      49.5        -113.53     
H           111.18      44.19       -114.4      
H           108.93      48.54       -115.61     
H           105.74      52.05       -108.53     
H           108.8       48.12       -107.5      
H           105.75      50.79       -112.65     
H           105.29      49.51       -111.4      
H           104.98148   51.18674    -111.07795  
H           107.62      52.21       -112.13     
H           107.4       52.81       -110.66     
H           108.91407   51.93368    -111.02145  
H           111.43      46.16       -110.25     
H           112.09      44.97       -111.21     
H           112.3491    46.56222    -111.83409  
H           109.6       44.83       -110.34     
H           110.02      43.74       -111.66     
H           108.42244   44.57542    -111.73418  
H           105.75      52.36       -105.86     
H           111.17      43.74       -117.05     
S           107.83      49.64       -104.95     
C           106.42      51.54       -105.83     
C           106.82      51.03       -104.65     
C           110.52      43.94       -122.5      
C           111.03      43.14       -121.45     
C           110.08      45.16       -122.07     
N           111.51      41.89       -121.49     
N           111.59      42.49       -119.28     
O           111.94      41.53       -120.21     
H           109.84      46.67       -120.56     
H           109.66      45.88       -122.74     
C           110.23      45.62       -120.71     
C           111.15      43.56       -120.05     
C           110.74      44.9        -119.66     
C           100.05      39.2        -134.29     
C           100.19      40.43       -133.85     
S           101.53      38.32       -134.03     
C           104.57      42.36       -130.07     
C           104.82      41.06       -130.68     
C           105.93      40.29       -130.21     
C           106.79      40.84       -129.27     
C           106.63      42.2        -128.78     
C           105.48      42.94       -129.15     
C           107.96      40.16       -128.53     
C           108.46      41.29       -127.71     
C           107.68      42.46       -127.79     
C           103.31      43.01       -130.69     
C           102.83      41.9        -131.63     
C           103.7       40.85       -131.66     
C           109.4       41.16       -126.71     
C           109.57      42.2        -125.78     
C           108.8       43.4        -125.93     
C           107.87      43.52       -126.96     
C           101.63      41.88       -132.33     
C           101.32      40.71       -133.05     
C           102.17      39.61       -133.09     
C           103.4       39.67       -132.4      
C           109.06      39.6        -129.43     
C           107.48      39.1        -127.52     
C           103.48      44.32       -131.5      
C           102.23      43.14       -129.53     
H           105.23      43.94       -128.77     
H           106.19      39.32       -130.63     
H           100.86      42.69       -132.29     
H           103.97      38.78       -132.39     
H           109.98      40.27       -126.52     
H           107.24      44.37       -126.95     
H           108.51      39.02       -130.2      
H           109.89      39.03       -128.99     
H           109.51453   40.34124    -130.08732  
H           106.87      39.58       -126.7      
H           108.33      38.62       -126.94     
H           106.93206   38.26741    -127.9612   
H           101.29      43.34       -130.04     
H           102.03      42.22       -129.02     
H           102.42374   43.8504     -128.72632  
H           103.81      45.08       -130.8      
H           102.56      44.7        -131.82     
H           104.10959   44.22096    -132.38426  
H           110.79      41.4        -124.0      
H           99.45       41.21       -133.98     
S           109.12      44.58       -124.73     
C           110.28      42.23       -124.48     
C           110.1       43.44       -123.83     
C           96.42       37.74       -136.33     
C           97.41       36.81       -135.8      
C           96.71       39.04       -136.02     
N           97.55       35.53       -136.01     
N           99.37       36.26       -134.91     
O           98.73       35.16       -135.44     
H           97.78       40.54       -134.93     
H           96.14       39.86       -136.44     
C           97.88       39.45       -135.34     
C           98.64       37.26       -135.16     
C           98.9        38.64       -134.91     
C           82.14       34.55       -144.38     
C           82.85       35.66       -144.41     
S           83.05       33.37       -143.42     
C           88.28       36.74       -141.81     
C           87.74       35.44       -141.43     
C           88.46       34.58       -140.63     
C           89.66       35.02       -140.08     
C           90.09       36.33       -140.3      
C           89.45       37.21       -141.19     
C           90.53       34.18       -139.21     
C           91.6        35.21       -138.85     
C           91.29       36.51       -139.47     
C           87.22       37.58       -142.55     
C           86.08       36.54       -142.79     
C           86.42       35.34       -142.12     
C           92.66       35.07       -137.95     
C           93.48       36.14       -137.8      
C           93.29       37.4        -138.51     
C           92.11       37.56       -139.26     
C           84.97       36.69       -143.53     
C           84.0        35.66       -143.54     
C           84.29       34.47       -142.89     
C           85.54       34.31       -142.23     
C           91.03       32.94       -140.01     
C           89.77       33.69       -137.95     
C           87.74       38.05       -143.88     
C           86.61       38.73       -141.66     
H           89.75       38.22       -141.31     
H           88.03       33.59       -140.37     
H           84.87       37.6        -144.13     
H           85.79       33.32       -141.79     
H           92.85       34.08       -137.47     
H           91.95       38.54       -139.7      
H           91.79       32.54       -139.38     
H           90.2        32.25       -140.14     
H           91.41819    33.18703    -140.99812  
H           88.81       33.2        -138.34     
H           90.46       32.95       -137.52     
H           89.51647    34.50854    -137.27634  
H           85.64       39.01       -142.1      
H           86.33       38.38       -140.62     
H           87.24664    39.60985    -141.56701  
H           88.67       38.6        -143.77     
H           87.04       38.75       -144.28     
H           87.93132    37.17542    -144.50177  
H           94.88       35.35       -136.34     
H           82.56       36.46       -145.05     
S           94.4        38.6        -137.98     
C           94.57       36.22       -136.98     
C           95.19       37.4        -136.97     
C           78.43       33.3        -146.43     
C           78.79       34.7        -146.4      
C           79.16       32.46       -145.66     
N           78.16       35.68       -147.02     
N           80.1        36.36       -146.02     
O           78.87       36.75       -146.58     
H           80.82       32.08       -144.38     
H           78.94       31.43       -145.54     
C           80.34       32.88       -144.93     
C           80.0        35.05       -145.72     
C           80.84       34.18       -144.95     
H           134.24      15.77       -0.04       
H           77.49       32.99       -146.84     
