612

C           96.28       6.81        31.73       
C           97.3        7.29        32.58       
S           95.1        5.91        32.69       
C           96.74       7.42        38.62       
C           95.89       6.53        38.01       
C           94.87       5.88        38.67       
C           94.67       6.06        40.01       
C           95.64       6.82        40.7        
C           96.65       7.58        40.0        
C           93.67       5.43        40.99       
C           94.26       5.97        42.28       
C           95.31       6.9         42.08       
C           97.68       8.11        37.63       
C           97.37       7.34        36.35       
C           96.17       6.58        36.54       
C           93.71       5.85        43.51       
C           94.19       6.54        44.57       
C           95.2        7.56        44.44       
C           95.77       7.77        43.13       
C           97.77       7.55        35.03       
C           97.01       7.11        33.97       
C           95.87       6.36        34.23       
C           95.45       6.01        35.46       
C           93.83       3.88        41.09       
C           92.22       5.98        40.79       
C           99.19       7.87        38.08       
C           97.41       9.66        37.41       
H           97.4        8.13        40.58       
H           94.1        5.35        38.1        
H           98.71       8.18        34.81       
H           94.6        5.33        35.54       
H           92.99       5.11        43.77       
H           96.55       8.46        42.94       
H           93.38       3.42        40.32       
H           93.29       3.73        41.95       
H           94.848      3.49825     41.01224    
H           92.24       7.06        40.68       
H           91.61       5.71        41.72       
H           91.71403    5.54824     39.92648    
H           98.09       10.19       36.7        
H           96.44       9.64        36.95       
H           97.22474    10.21578    38.32918    
H           99.26       8.17        39.16       
H           99.95       8.38        37.54       
H           99.42378    6.80668     38.13279    
H           93.08       5.66        46.19       
H           98.18       7.87        32.28       
S           95.64       8.25        45.98       
C           93.87       6.38        45.94       
C           94.45       7.21        46.78       
C           96.19       7.34        27.34       
C           97.45       7.19        28.07       
C           95.1        7.21        28.15       
N           98.67       7.31        27.59       
N           98.77       6.95        29.83       
O           99.49       7.14        28.65       
H           94.2        6.81        30.08       
H           94.1        7.3         27.64       
C           95.16       6.93        29.6        
C           97.53       6.97        29.5        
C           96.34       6.83        30.27       
C           96.05       13.52       11.9        
C           94.93       13.55       12.7        
S           97.48       12.98       12.86       
C           94.72       10.61       18.07       
C           95.97       10.62       17.45       
C           97.15       10.13       18.11       
C           97.0        9.59        19.36       
C           95.73       9.71        20.07       
C           94.59       10.13       19.37       
C           98.04       8.92        20.23       
C           97.21       8.66        21.51       
C           95.85       9.1         21.42       
C           93.67       11.43       17.27       
C           94.45       11.64       15.97       
C           95.82       11.32       16.19       
C           97.63       8.04        22.6        
C           96.82       7.98        23.73       
C           95.54       8.44        23.68       
C           95.06       9.02        22.53       
C           94.13       12.28       14.8        
C           95.1        12.75       13.92       
C           96.41       12.36       14.14       
C           96.83       11.63       15.21       
C           99.22       9.8         20.57       
C           98.4        7.51        19.59       
C           93.4        12.72       18.03       
C           92.37       10.6        16.94       
H           93.6        9.98        19.87       
H           98.11       10.08       17.61       
H           93.12       12.55       14.57       
H           97.87       11.38       15.44       
H           98.61       7.51        22.65       
H           94.06       9.45        22.52       
H           100.03      9.83        19.8        
H           99.75       9.26        21.33       
H           98.96748    10.81006    20.89266    
H           97.4        7.11        19.43       
H           98.87       6.8         20.3        
H           98.96999    7.46615     18.66194    
H           91.73       11.23       16.39       
H           92.76       9.83        16.26       
H           91.83824    10.19418    17.80061    
H           92.37       12.94       18.05       
H           93.72       12.6        19.0        
H           93.90573    13.61749    17.67385    
H           98.04       7.03        25.31       
H           93.95       13.98       12.42       
S           94.68       8.45        25.2        
C           97.05       7.43        25.06       
C           95.99       7.57        25.98       
C           96.61       15.65       8.11        
C           97.43       14.59       8.57        
C           95.64       15.98       9.05        
N           98.44       14.06       7.95        
N           98.15       12.95       9.82        
O           98.8        12.96       8.62        
H           94.72       15.61       10.93       
H           94.9        16.77       8.85        
C           95.45       15.19       10.26       
C           97.29       13.88       9.76        
C           96.25       14.19       10.65       
C           98.5        26.87       -3.9        
C           97.46       26.8        -3.05       
S           99.69       25.69       -3.38       
C           96.7        22.56       1.24        
C           97.87       22.38       0.36        
C           98.77       21.32       0.49        
C           98.59       20.41       1.48        
C           97.39       20.51       2.31        
C           96.43       21.54       2.15        
C           99.62       19.58       2.23        
C           98.7        18.77       3.18        
C           97.5        19.47       3.25        
C           95.88       23.78       0.82        
C           96.78       24.31       -0.25       
C           97.91       23.49       -0.5        
C           98.94       17.73       4.06        
C           97.97       17.52       5.11        
C           96.77       18.16       5.11        
C           96.52       19.17       4.21        
C           96.54       25.45       -1.05       
C           97.54       25.83       -1.94       
C           98.65       25.06       -2.12       
C           98.91       23.91       -1.34       
C           100.54      20.65       2.93        
C           100.42      18.54       1.31        
C           95.67       24.75       2.01        
C           94.59       23.4        0.14        
H           95.68       21.7        2.9         
H           99.6        21.24       -0.24       
H           95.59       25.95       -1.0        
H           99.72       23.27       -1.68       
H           99.89       17.23       4.05        
H           95.57       19.64       4.16        
H           101.05      21.08       2.05        
H           99.97       21.42       3.42        
H           101.21072   20.1798     3.64913     
H           101.37      18.84       1.01        
H           100.58      17.57       1.91        
H           99.89302    18.26919    0.3951      
H           93.75       23.42       0.85        
H           94.36       24.12       -0.67       
H           94.64829    22.43088    -0.35549    
H           95.02       25.53       1.66        
H           95.05       24.24       2.83        
H           96.57459    25.19108    2.42865     
H           98.89       15.97       6.38        
H           96.6        27.48       -3.12       
S           95.66       17.65       6.35        
C           98.0        16.53       6.13        
C           96.84       16.43       6.91        
C           99.45       29.22       -7.6        
C           98.4        29.51       -6.74       
C           100.24      28.17       -7.1        
N           97.6        30.54       -6.93       
N           97.0        29.47       -5.07       
O           96.66       30.42       -5.93       
H           100.5       26.47       -5.83       
H           101.11      27.83       -7.66       
C           99.86       27.37       -5.93       
C           98.08       28.85       -5.52       
C           98.81       27.67       -5.04       
C           108.4       34.54       -20.72      
C           108.5       33.27       -20.17      
S           107.33      35.57       -19.84      
C           105.05      31.55       -15.53      
C           104.88      32.89       -15.93      
C           103.98      33.66       -15.22      
C           103.21      33.13       -14.14      
C           103.42      31.84       -13.74      
C           104.35      31.01       -14.46      
C           102.03      33.74       -13.39      
C           101.67      32.59       -12.4       
C           102.54      31.48       -12.64      
C           106.21      30.91       -16.32      
C           106.32      31.87       -17.51      
C           105.68      33.09       -17.17      
C           100.69      32.57       -11.38      
C           100.56      31.41       -10.57      
C           101.45      30.36       -10.87      
C           102.41      30.34       -11.87      
C           107.18      31.85       -18.61      
C           107.53      33.07       -19.15      
C           106.84      34.25       -18.84      
C           105.87      34.28       -17.83      
C           101.0       34.03       -14.53      
C           102.32      35.05       -12.63      
C           105.67      29.49       -16.8       
C           107.52      30.73       -15.43      
H           104.55      30.0        -14.22      
H           103.93      34.74       -15.47      
H           107.77      30.99       -18.78      
H           105.4       35.17       -17.51      
H           99.94       33.33       -11.27      
H           103.03      29.45       -12.15      
H           100.39      34.91       -14.23      
H           101.57      34.21       -15.41      
H           100.25057   33.24419    -14.62459   
H           102.42      35.88       -13.35      
H           101.47      35.4        -11.98      
H           103.28493   35.11203    -12.12686   
H           108.4       30.64       -16.09      
H           107.69      31.63       -14.89      
H           107.5569    29.89615    -14.72898   
H           105.21      28.95       -16.07      
H           106.53      28.85       -17.1       
H           105.00774   29.54759    -17.66382   
H           98.89       31.81       -9.09       
H           109.14      32.52       -20.66      
S           101.02      29.05       -9.8        
C           99.62       31.16       -9.43       
C           99.92       29.99       -8.77       
C           110.68      36.22       -24.09      
C           110.89      34.88       -23.66      
C           109.62      36.84       -23.56      
N           111.69      33.98       -24.2       
N           110.6       33.02       -22.44      
O           111.52      32.83       -23.46      
H           108.19      36.95       -22.04      
H           109.54      37.92       -23.66      
C           108.9       36.24       -22.41      
C           110.1       34.26       -22.59      
C           109.15      34.99       -21.86      
C           121.03      38.99       -36.18      
C           121.33      38.36       -35.03      
S           119.67      40.03       -35.89      
C           118.16      38.44       -29.99      
C           117.75      39.49       -30.88      
C           116.56      40.18       -30.8       
C           115.66      39.86       -29.75      
C           116.04      38.82       -28.85      
C           117.27      38.16       -28.97      
C           114.25      40.33       -29.49      
C           113.78      39.29       -28.38      
C           114.91      38.52       -27.89      
C           119.41      37.69       -30.44      
C           119.59      38.36       -31.81      
C           118.66      39.39       -32.06      
C           112.56      39.22       -27.71      
C           112.45      38.25       -26.67      
C           113.53      37.47       -26.31      
C           114.76      37.64       -26.89      
C           120.6       38.06       -32.71      
C           120.53      38.65       -33.95      
C           119.49      39.55       -34.22      
C           118.63      40.04       -33.24      
C           113.38      40.26       -30.71      
C           114.23      41.69       -28.86      
C           119.15      36.18       -30.71      
C           120.71      38.01       -29.6       
H           117.38      37.28       -28.41      
H           116.19      40.93       -31.63      
H           121.41      37.41       -32.51      
H           117.85      40.79       -33.46      
H           111.66      39.86       -27.91      
H           115.55      36.96       -26.66      
H           113.78      40.84       -31.56      
H           112.4       40.73       -30.56      
H           113.09185   39.26202    -31.04032   
H           114.62      42.3        -29.66      
H           113.16      42.05       -28.72      
H           114.97366   41.86214    -28.08191   
H           121.62      37.54       -29.99      
H           120.81      39.12       -29.61      
H           120.68227   37.64263    -28.57415   
H           120.12      35.8        -31.05      
H           118.91      35.54       -29.86      
H           118.35783   35.98879    -31.43388   
H           110.34      38.15       -25.95      
H           122.07      37.55       -35.01      
S           113.3       36.38       -24.89      
C           111.35      37.85       -25.83      
C           111.61      36.82       -24.98      
C           122.07      38.14       -40.4       
C           122.31      37.19       -39.37      
C           121.56      39.27       -39.96      
N           122.76      35.96       -39.5       
N           122.48      36.38       -37.33      
O           122.85      35.49       -38.28      
H           121.03      40.54       -38.38      
H           121.24      40.07       -40.75      
C           121.45      39.62       -38.55      
C           122.1       37.43       -38.02      
C           121.54      38.7        -37.53      
C           115.73      37.73       -54.77      
C           116.48      38.73       -54.38      
S           116.03      36.28       -53.82      
C           120.62      38.48       -49.99      
C           119.98      37.25       -50.34      
C           120.14      36.12       -49.53      
C           120.92      36.24       -48.38      
C           121.43      37.47       -48.07      
C           121.28      38.59       -48.82      
C           121.24      35.17       -47.34      
C           121.76      36.07       -46.21      
C           121.71      37.41       -46.63      
C           120.23      39.61       -51.0       
C           119.32      38.79       -51.95      
C           119.12      37.44       -51.51      
C           121.99      35.71       -44.94      
C           122.12      36.72       -43.94      
C           122.11      38.13       -44.4       
C           121.95      38.45       -45.75      
C           118.52      39.3        -52.89      
C           117.48      38.48       -53.36      
C           117.31      37.12       -52.92      
C           118.2       36.59       -51.99      
C           122.43      34.3        -47.89      
C           120.08      34.29       -46.86      
C           121.45      40.25       -51.69      
C           119.35      40.76       -50.33      
H           121.72      39.5        -48.45      
H           119.86      35.19       -49.88      
H           118.58      40.38       -52.99      
H           118.03      35.55       -51.68      
H           121.96      34.63       -44.57      
H           121.95      39.53       -46.1       
H           122.11      33.74       -48.76      
H           123.15      35.0        -48.35      
H           122.89975   33.55978    -47.24231   
H           119.62      33.77       -47.69      
H           120.31      33.54       -46.1       
H           119.20818   34.81597    -46.47092   
H           119.02      41.47       -51.07      
H           118.44      40.41       -49.8       
H           119.81102   41.35374    -49.54068   
H           121.03      40.98       -52.39      
H           122.16      40.8        -51.05      
H           122.12071   39.57216    -52.218     
H           122.15      35.66       -42.0       
H           116.48      39.68       -54.88      
S           122.11      39.14       -42.95      
C           122.2       36.61       -42.5       
C           122.1       37.8        -41.84      
C           112.43      37.9        -57.79      
C           112.86      39.02       -57.05      
C           113.03      36.73       -57.34      
N           112.52      40.26       -57.31      
N           114.06      40.2        -55.59      
O           113.32      40.93       -56.44      
H           114.34      35.69       -55.98      
H           112.66      35.76       -57.79      
C           114.07      36.67       -56.31      
C           113.97      39.02       -56.1       
C           114.56      37.8        -55.63      
C           103.82      40.78       -71.2       
C           103.55      41.52       -70.05      
S           104.38      39.19       -70.8       
C           105.74      39.93       -64.65      
C           105.84      38.96       -65.7       
C           106.57      37.8        -65.5       
C           107.22      37.62       -64.28      
C           107.2       38.61       -63.27      
C           106.37      39.71       -63.43      
C           108.38      36.65       -64.06      
C           108.8       37.03       -62.64      
C           108.02      38.14       -62.2       
C           104.93      41.11       -65.19      
C           104.66      40.61       -66.56      
C           105.12      39.36       -66.84      
C           109.79      36.55       -61.8       
C           110.07      37.31       -60.61      
C           109.27      38.37       -60.16      
C           108.31      38.85       -61.02      
C           103.95      41.33       -67.54      
C           103.89      40.81       -68.83      
C           104.37      39.5        -69.09      
C           105.01      38.81       -68.09      
C           109.46      36.83       -65.19      
C           107.84      35.22       -64.05      
C           105.75      42.47       -65.15      
C           103.57      41.24       -64.41      
H           106.25      40.48       -62.64      
H           106.81      37.15       -66.33      
H           103.62      42.33       -67.35      
H           105.49      37.84       -68.3       
H           110.37      35.64       -62.04      
H           107.69      39.7        -60.72      
H           109.09      36.36       -66.06      
H           109.46      37.88       -65.48      
H           110.42416   36.3767     -64.95975   
H           107.48      34.82       -64.98      
H           108.73      34.63       -63.8       
H           107.16808   34.99841    -63.22083   
H           103.68      41.63       -63.37      
H           102.97      41.84       -65.03      
H           103.03349   40.29575    -64.31701   
H           106.19      42.51       -64.08      
H           105.05      43.24       -65.33      
H           106.51029   42.47691    -65.93103   
H           111.89      36.23       -59.95      
H           103.4       42.59       -70.11      
S           110.03      39.14       -58.78      
C           111.21      37.05       -59.76      
C           111.36      37.96       -58.74      
C           103.83      41.94       -75.41      
C           104.16      42.9        -74.39      
C           103.66      40.63       -74.95      
N           104.58      44.15       -74.43      
N           104.48      43.53       -72.3       
O           104.69      44.57       -73.14      
H           103.45      39.23       -73.3       
H           103.54      39.85       -75.72      
C           103.59      40.27       -73.56      
C           104.16      42.52       -73.02      
C           103.79      41.23       -72.62      
C           95.84       43.19       -89.41      
C           96.21       42.01       -88.93      
S           96.71       44.57       -88.77      
C           100.57      41.48       -84.7       
C           100.46      42.78       -85.2       
C           100.91      43.92       -84.53      
C           101.56      43.7        -83.29      
C           101.71      42.36       -82.78      
C           101.17      41.23       -83.46      
C           102.3       44.73       -82.36      
C           102.69      43.79       -81.19      
C           102.35      42.41       -81.49      
C           99.81       40.49       -85.62      
C           99.06       41.43       -86.52      
C           99.45       42.78       -86.25      
C           103.27      44.17       -80.05      
C           103.41      43.15       -79.01      
C           103.02      41.84       -79.34      
C           102.61      41.44       -80.57      
C           98.08       41.05       -87.46      
C           97.4        42.11       -88.11      
C           97.68       43.44       -87.79      
C           98.68       43.83       -86.88      
C           101.39      45.89       -81.9       
C           103.69      45.27       -82.98      
C           98.79       39.53       -84.94      
C           100.83      39.67       -86.49      
H           101.29      40.23       -83.16      
H           100.57      44.92       -84.8       
H           97.71       40.0        -87.62      
H           98.91       44.85       -86.84      
H           103.55      45.2        -79.91      
H           102.31      40.49       -80.82      
H           101.99      46.75       -81.62      
H           100.72      46.18       -82.71      
H           100.78847   45.62816    -81.02954   
H           103.57      46.19       -83.51      
H           104.37      45.39       -82.15      
H           104.1268    44.64702    -83.76051   
H           100.25      39.03       -87.13      
H           101.48      40.3        -87.1       
H           101.4569    39.02901    -85.87014   
H           99.27       38.8        -84.32      
H           98.28       38.98       -85.75      
H           98.11395    40.03533    -84.25029   
H           104.03      44.22       -77.14      
H           95.87       41.05       -89.28      
S           103.26      40.78       -77.94      
C           103.81      43.25       -77.62      
C           103.68      42.13       -76.89      
C           92.12       44.39       -91.16      
C           92.37       42.98       -90.83      
C           93.24       45.14       -91.15      
N           91.52       41.9        -90.95      
N           93.44       41.23       -89.91      
O           92.13       40.88       -90.26      
H           95.26       45.38       -90.59      
H           93.15       46.19       -91.52      
C           94.44       44.65       -90.71      
C           93.58       42.49       -90.33      
C           94.65       43.41       -90.22      
C           79.51       54.71       -90.51      
C           80.78       54.81       -89.99      
S           79.06       53.1        -91.06      
C           84.63       50.24       -89.62      
C           83.41       49.9        -90.31      
C           83.35       48.77       -91.12      
C           84.51       47.94       -91.14      
C           85.69       48.34       -90.45      
C           85.69       49.4        -89.64      
C           84.72       46.49       -91.75      
C           86.24       46.32       -91.55      
C           86.76       47.34       -90.67      
C           84.57       51.59       -88.95      
C           83.25       52.09       -89.56      
C           82.53       51.09       -90.26      
C           87.04       45.2        -91.75      
C           88.47       45.35       -91.49      
C           88.91       46.5        -90.79      
C           88.04       47.5        -90.33      
C           82.75       53.3        -89.41      
C           81.45       53.55       -89.9       
C           80.67       52.53       -90.57      
C           81.24       51.28       -90.69      
C           84.34       46.38       -93.24      
C           84.1        45.35       -90.92      
C           85.69       52.51       -89.48      
C           84.45       51.52       -87.38      
H           86.59       49.65       -89.12      
H           82.51       48.58       -91.72      
H           83.21       54.13       -88.82      
H           80.65       50.49       -91.05      
H           86.71       44.29       -92.34      
H           88.31       48.41       -89.82      
H           83.31       46.53       -93.35      
H           84.42       45.35       -93.51      
H           84.88708    47.07824    -93.87346   
H           84.76       45.28       -90.02      
H           84.07       44.39       -91.47      
H           83.07611    45.53154    -90.59323   
H           84.45       52.51       -87.02      
H           83.6        50.99       -87.1       
H           85.38466    51.18012    -86.93391   
H           86.79       52.32       -89.29      
H           85.53       53.5        -88.99      
H           85.63907    52.61186    -90.56403   
H           89.42       43.51       -92.07      
H           81.16       55.76       -89.59      
S           90.62       46.44       -90.34      
C           89.59       44.43       -91.66      
C           90.78       44.93       -91.22      
C           77.0        58.26       -91.4       
C           76.45       56.92       -91.36      
C           78.36       58.3        -91.13      
N           75.13       56.52       -91.57      
N           76.3        54.72       -91.08      
O           75.12       55.18       -91.49      
H           80.15       57.31       -90.88      
H           78.88       59.33       -91.13      
C           79.12       57.1        -90.87      
C           77.18       55.77       -90.99      
C           78.64       55.84       -90.71      
C           68.67       72.62       -92.07      
C           70.01       72.54       -92.3       
S           67.94       71.06       -92.14      
C           72.81       67.13       -92.89      
C           71.42       67.1        -92.55      
C           70.89       65.9        -92.1       
C           71.7        64.74       -92.0       
C           73.07       64.81       -92.34      
C           73.63       66.02       -92.65      
C           71.26       63.32       -91.63      
C           72.67       62.64       -91.61      
C           73.63       63.46       -92.1       
C           73.29       68.61       -92.95      
C           71.96       69.34       -92.71      
C           70.93       68.44       -92.55      
C           73.01       61.32       -91.26      
C           74.34       60.92       -91.36      
C           75.26       61.81       -91.94      
C           74.93       63.09       -92.28      
C           71.78       70.7        -92.56      
C           70.48       71.18       -92.42      
C           69.41       70.25       -92.37      
C           69.64       68.84       -92.34      
C           70.14       62.73       -92.56      
C           70.76       63.36       -90.22      
C           74.01       68.86       -94.32      
C           74.25       68.93       -91.78      
H           74.66       66.09       -92.87      
H           69.88       65.81       -91.74      
H           72.53       71.36       -92.68      
H           68.83       68.13       -92.08      
H           72.32       60.48       -91.07      
H           75.76       63.74       -92.6       
H           69.89       61.82       -92.13      
H           69.29       63.33       -92.44      
H           70.40756    62.68661    -93.61576   
H           69.82       63.86       -90.14      
H           70.6        62.37       -89.84      
H           71.47515    63.86657    -89.57189   
H           75.11       68.33       -91.98      
H           74.51       69.96       -91.94      
H           73.87476    68.62556    -90.80296   
H           74.88       68.22       -94.35      
H           74.43       69.82       -94.3       
H           73.3242     68.88799    -95.16675   
H           74.28       58.84       -90.6       
H           70.68       73.41       -92.16      
S           76.74       60.94       -92.28      
C           74.85       59.64       -91.06      
C           76.15       59.41       -91.47      
C           66.19       76.07       -90.9       
C           67.39       76.25       -91.75      
C           65.88       74.74       -90.73      
N           67.84       77.27       -92.33      
N           69.18       75.57       -92.94      
O           69.04       76.92       -92.89      
H           66.33       72.67       -90.87      
H           65.04       74.51       -90.11      
C           66.67       73.69       -91.18      
C           68.23       75.12       -92.18      
C           67.87       73.8        -91.79      
H           94.37       7.07        47.82       
H           65.42       76.78       -90.87      
