612

C           104.97      28.73       1.67        
C           105.42      27.73       2.41        
S           103.3       28.38       1.17        
C           102.2       22.75       3.84        
C           101.68      23.63       2.89        
C           100.54      23.26       2.22        
C           99.81       22.16       2.62        
C           100.21      21.4        3.64        
C           101.49      21.57       4.19        
C           98.43       21.87       2.18        
C           98.14       20.54       2.86        
C           99.21       20.27       3.82        
C           103.59      23.22       4.3         
C           103.65      24.55       3.62        
C           102.46      24.8        2.87        
C           97.04       19.77       2.76        
C           97.13       18.51       3.45        
C           98.26       18.21       4.32        
C           99.27       19.12       4.55        
C           104.65      25.57       3.6         
C           104.45      26.64       2.78        
C           103.28      26.88       2.07        
C           102.26      25.97       2.09        
C           98.34       21.6        0.58        
C           97.37       22.9        2.65        
C           104.72      22.31       3.81        
C           103.69      23.54       5.8         
H           101.87      20.96       5.02        
H           100.13      23.81       1.36        
H           105.58      25.56       4.23        
H           101.38      26.07       1.52        
H           96.15       20.0        2.29        
H           100.08      18.9        5.29        
H           98.4        22.54       -0.09       
H           97.43       21.09       0.34        
H           99.12278    20.91869    0.24659     
H           97.52       23.05       3.65        
H           96.36       22.53       2.44        
H           97.41271    23.86103    2.13745     
H           104.58      24.14       6.01        
H           102.87      24.14       6.17        
H           103.69      22.63414    6.40623     
H           104.5       21.35       4.32        
H           105.66      22.75       4.22        
H           104.77106   22.24435    2.72318     
H           95.46       17.35       2.73        
H           106.47      27.69       2.78        
S           98.0        16.71       5.16        
C           96.2        17.39       3.46        
C           96.66       16.26       4.18        
C           106.6       32.06       -0.75       
C           107.33      30.78       -0.5        
C           105.4       32.04       -0.19       
N           108.57      30.5        -0.98       
N           107.68      28.7        0.11        
O           108.73      29.23       -0.58       
H           103.97      31.24       1.13        
H           104.77      32.91       -0.22       
C           104.95      31.01       0.65        
C           106.8       29.68       0.23        
C           105.59      29.81       0.92        
C           109.79      40.21       -14.13      
C           108.67      40.5        -13.45      
S           111.09      39.77       -12.97      
C           107.92      39.24       -7.56       
C           109.19      39.12       -8.1        
C           110.09      38.35       -7.39       
C           109.72      37.55       -6.35       
C           108.4       37.69       -5.88       
C           107.55      38.66       -6.4        
C           110.53      36.41       -5.72       
C           109.45      35.97       -4.68       
C           108.25      36.69       -4.79       
C           107.07      40.04       -8.57       
C           108.04      40.19       -9.76       
C           109.35      39.72       -9.41       
C           109.63      34.97       -3.76       
C           108.51      34.51       -3.05       
C           107.29      35.13       -3.27       
C           107.2       36.3        -4.07       
C           107.75      40.59       -11.06      
C           108.78      40.4        -12.0       
C           110.07      39.94       -11.55      
C           110.44      39.66       -10.29      
C           111.75      36.89       -4.93       
C           110.82      35.2        -6.61       
C           106.73      41.35       -7.8        
C           105.85      39.18       -8.95       
H           106.51      38.65       -6.09       
H           111.06      38.25       -7.87       
H           106.75      40.87       -11.45      
H           111.4       39.21       -9.95       
H           110.57      34.37       -3.69       
H           106.26      36.91       -4.03       
H           112.48      37.46       -5.55       
H           112.27      35.98       -4.6        
H           111.55294   37.46008    -4.0221     
H           109.88      34.87       -7.03       
H           111.17      34.4        -6.01       
H           111.43469   35.51449    -7.45341    
H           105.21      39.04       -8.1        
H           105.33      39.72       -9.71       
H           106.07817   38.18009    -9.31909    
H           105.72      41.19       -7.42       
H           107.36      41.49       -6.92       
H           106.88783   42.25394    -8.38828    
H           109.22      32.79       -2.02       
H           107.68      40.64       -13.96      
S           106.05      34.34       -2.22       
C           108.36      33.32       -2.24       
C           107.11      33.12       -1.61       
C           110.38      38.54       -18.17      
C           111.39      39.25       -17.45      
C           109.17      38.5        -17.51      
N           112.74      39.4        -17.7       
N           112.4       40.21       -15.69      
O           113.36      39.93       -16.62      
H           107.93      39.13       -15.79      
H           108.36      38.05       -17.93      
C           108.92      39.24       -16.27      
C           111.2       39.81       -16.14      
C           109.9       39.9        -15.56      
C           109.85      26.2        -28.76      
C           108.82      27.01       -28.5       
S           111.33      26.83       -28.09      
C           109.16      32.09       -25.32      
C           110.42      31.58       -25.67      
C           111.63      32.24       -25.41      
C           111.54      33.29       -24.55      
C           110.25      33.79       -24.18      
C           109.1       33.23       -24.59      
C           112.73      34.0        -23.86      
C           111.89      34.95       -22.95      
C           110.47      34.8        -23.15      
C           107.95      31.25       -25.86      
C           108.75      30.12       -26.46      
C           110.12      30.27       -26.21      
C           112.32      35.89       -22.05      
C           111.46      36.64       -21.25      
C           110.08      36.38       -21.39      
C           109.52      35.47       -22.35      
C           108.27      29.03       -27.13      
C           109.15      28.09       -27.62      
C           110.51      28.19       -27.41      
C           111.0       29.3        -26.73      
C           113.47      34.84       -24.93      
C           113.64      33.0        -23.04      
C           107.09      32.09       -26.83      
C           107.14      30.84       -24.58      
H           108.12      33.7        -24.34      
H           112.56      31.69       -25.56      
H           107.3       28.89       -27.38      
H           112.05      29.38       -26.58      
H           113.36      36.01       -21.85      
H           108.43      35.36       -22.42      
H           113.7       34.19       -25.75      
H           112.79      35.57       -25.45      
H           114.37518   35.38598    -24.66419   
H           114.28      32.56       -23.85      
H           114.36      33.48       -22.43      
H           113.06785   32.22246    -22.53387   
H           106.78      31.71       -24.07      
H           106.3       30.29       -25.01      
H           107.73754   30.26432    -23.87315   
H           106.46      32.85       -26.34      
H           107.89      32.69       -27.21      
H           106.63077   31.63077    -27.7054    
H           112.61      37.92       -19.76      
H           107.86      26.89       -28.96      
S           109.2       37.17       -20.18      
C           111.69      37.59       -20.16      
C           110.58      37.86       -19.46      
C           109.96      23.84       -32.48      
C           110.7       23.49       -31.3       
C           109.08      24.89       -32.25      
N           111.52      22.43       -31.1       
N           111.61      23.78       -29.35      
O           112.04      22.61       -29.9       
H           108.73      26.64       -31.04      
H           108.55      25.23       -33.08      
C           109.12      25.55       -31.01      
C           110.62      24.17       -30.04      
C           109.8       25.29       -29.88      
C           116.92      24.33       -47.34      
C           115.57      24.7        -47.24      
S           117.44      23.45       -45.91      
C           112.35      23.8        -42.11      
C           113.72      23.31       -42.12      
C           114.18      22.6        -41.06      
C           113.5       22.73       -39.83      
C           112.22      23.27       -39.81      
C           111.57      23.79       -40.96      
C           114.01      22.07       -38.55      
C           112.81      22.45       -37.66      
C           111.81      23.23       -38.33      
C           111.94      24.32       -43.47      
C           113.31      24.24       -44.19      
C           114.28      23.51       -43.45      
C           112.69      22.15       -36.36      
C           111.56      22.59       -35.61      
C           110.58      23.37       -36.24      
C           110.69      23.67       -37.54      
C           113.72      24.76       -45.45      
C           114.97      24.36       -45.97      
C           115.84      23.55       -45.21      
C           115.49      23.16       -43.96      
C           115.31      22.87       -38.22      
C           114.11      20.52       -38.82      
C           111.41      25.82       -43.32      
C           110.93      23.44       -44.26      
H           110.59      24.24       -40.9       
H           115.1       22.05       -41.18      
H           113.04      25.29       -46.12      
H           116.25      22.58       -43.42      
H           113.44      21.51       -35.94      
H           110.03      24.36       -38.04      
H           115.93      22.8        -39.09      
H           114.97      23.87       -38.13      
H           115.81638   22.56055    -37.30571   
H           114.89      20.36       -39.55      
H           114.46      20.08       -37.88      
H           113.17951   20.037      -39.11832   
H           109.96      23.98       -44.21      
H           111.16      23.39       -45.27      
H           110.64534   22.47216    -43.84725   
H           110.53      25.87       -42.68      
H           111.15      26.21       -44.3       
H           112.21201   26.43974    -42.91899   
H           112.0       22.16       -33.52      
H           115.07      25.27       -48.02      
S           109.38      24.12       -35.26      
C           111.27      22.61       -34.21      
C           110.2       23.38       -33.85      
C           120.09      25.67       -50.26      
C           118.98      26.48       -49.79      
C           119.82      24.38       -49.81      
N           118.71      27.72       -50.1       
N           117.04      27.05       -48.71      
O           117.49      28.11       -49.51      
H           118.69      22.9        -48.69      
H           120.46      23.59       -50.12      
C           118.72      23.97       -48.93      
C           117.97      26.1        -48.82      
C           117.9       24.8        -48.26      
C           128.2       28.35       -64.4       
C           128.5       27.24       -63.68      
S           127.6       29.64       -63.27      
C           126.24      26.29       -58.12      
C           126.06      27.54       -58.72      
C           125.19      28.44       -58.15      
C           124.59      28.16       -56.95      
C           124.76      26.9        -56.28      
C           125.62      26.0        -56.96      
C           123.53      28.97       -56.2       
C           123.18      28.05       -55.08      
C           123.91      26.87       -55.16      
C           127.12      25.45       -59.07      
C           127.3       26.37       -60.28      
C           126.84      27.68       -59.9       
C           122.3       28.27       -54.04      
C           122.06      27.25       -53.09      
C           122.63      26.01       -53.26      
C           123.6       25.8        -54.31      
C           127.97      26.21       -61.45      
C           128.03      27.29       -62.36      
C           127.5       28.53       -61.99      
C           126.97      28.75       -60.7       
C           122.19      29.19       -57.05      
C           124.03      30.33       -55.64      
C           126.41      24.05       -59.25      
C           128.45      25.14       -58.32      
H           125.79      24.97       -56.49      
H           124.99      29.39       -58.68      
H           128.35      25.2        -61.72      
H           126.52      29.71       -60.53      
H           121.79      29.25       -53.96      
H           123.96      24.77       -54.4       
H           122.19      30.13       -57.66      
H           121.47      29.44       -56.38      
H           121.86253   28.32604    -57.6283    
H           124.43      30.86       -56.5       
H           123.31      30.98       -55.13      
H           124.82003   30.2414     -54.89427   
H           128.53      24.24       -57.7       
H           129.12      24.91       -59.11      
H           128.8593    25.95859    -57.72798   
H           126.27      23.46       -58.3       
H           125.44      24.34       -59.64      
H           126.86956   23.41092    -60.00397   
H           120.69      28.22       -51.69      
H           128.79      26.31       -64.19      
S           122.14      24.86       -51.96      
C           121.29      27.33       -51.92      
C           121.14      26.1        -51.2       
C           126.56      28.99       -68.43      
C           127.15      27.73       -68.07      
C           126.78      29.92       -67.49      
N           127.21      26.56       -68.72      
N           128.09      26.22       -66.67      
O           127.63      25.66       -67.82      
H           127.46      30.58       -65.58      
H           126.35      30.95       -67.59      
C           127.47      29.71       -66.25      
C           127.87      27.46       -66.84      
C           127.96      28.52       -65.85      
C           113.43      30.61       -77.99      
C           113.9       31.7        -77.36      
S           114.64      29.32       -77.95      
C           119.38      31.69       -74.49      
C           118.98      30.52       -75.13      
C           119.68      29.29       -75.11      
C           120.89      29.28       -74.42      
C           121.26      30.46       -73.65      
C           120.57      31.69       -73.75      
C           121.66      28.07       -74.07      
C           122.64      28.72       -73.01      
C           122.31      30.07       -72.81      
C           118.31      32.77       -74.64      
C           117.23      32.06       -75.49      
C           117.69      30.75       -75.67      
C           123.57      28.06       -72.25      
C           124.26      28.75       -71.23      
C           123.91      30.11       -70.99      
C           122.9       30.75       -71.71      
C           116.02      32.51       -76.03      
C           115.26      31.61       -76.77      
C           115.79      30.28       -76.95      
C           116.94      29.84       -76.38      
C           122.41      27.46       -75.26      
C           120.86      26.98       -73.42      
C           118.96      34.02       -75.21      
C           117.78      33.1        -73.24      
H           120.68      32.52       -73.07      
H           119.27      28.39       -75.52      
H           115.58      33.56       -75.92      
H           117.37      28.87       -76.5       
H           123.77      27.01       -72.41      
H           122.49      31.69       -71.43      
H           123.14      26.88       -74.82      
H           121.76      26.76       -75.78      
H           122.83617   28.26343    -75.86082   
H           120.26      26.51       -74.16      
H           121.48      26.2        -73.05      
H           120.22547   27.27944    -72.58585   
H           118.53      33.65       -72.61      
H           116.9       33.71       -73.37      
H           117.47051   32.20838    -72.69471   
H           118.3       34.91       -74.93      
H           119.9       34.18       -74.69      
H           119.09825   33.87484    -76.28141   
H           125.56      27.15       -70.33      
H           113.32      32.68       -77.42      
S           124.93      30.7        -69.76      
C           125.26      28.22       -70.36      
C           125.67      29.14       -69.47      
C           109.7       29.69       -80.44      
C           109.85      30.89       -79.61      
C           110.81      28.94       -80.35      
N           109.06      31.89       -79.52      
N           110.84      32.32       -78.22      
O           109.61      32.73       -78.58      
H           112.88      28.52       -79.69      
H           110.88      28.01       -81.01      
C           112.03      29.2        -79.63      
C           111.02      31.14       -78.78      
C           112.18      30.29       -78.72      
C           96.78       22.07       -87.31      
C           96.71       22.67       -86.07      
S           98.42       22.26       -87.98      
C           101.45      25.63       -83.45      
C           101.7       25.02       -84.71      
C           102.9       25.14       -85.45      
C           103.89      25.87       -84.89      
C           103.67      26.48       -83.57      
C           102.51      26.35       -82.85      
C           105.26      26.28       -85.42      
C           105.87      26.97       -84.23      
C           104.84      27.24       -83.27      
C           100.01      25.32       -83.07      
C           99.5        24.43       -84.21      
C           100.49      24.32       -85.17      
C           107.09      27.41       -84.07      
C           107.33      28.05       -82.86      
C           106.34      28.34       -81.88      
C           105.05      27.9        -82.09      
C           98.29       23.83       -84.43      
C           98.01       23.18       -85.62      
C           99.0        23.13       -86.57      
C           100.25      23.66       -86.37      
C           105.05      27.29       -86.56      
C           106.08      25.07       -85.75      
C           99.32       26.62       -82.84      
C           100.02      24.47       -81.7       
H           102.51      26.75       -81.82      
H           102.94      24.88       -86.52      
H           97.43       23.9        -83.74      
H           101.11      23.53       -87.03      
H           107.93      27.22       -84.75      
H           104.23      28.09       -81.35      
H           105.98      27.81       -86.79      
H           104.84      26.9        -87.54      
H           104.32837   28.09022    -86.39567   
H           105.81      24.8        -86.72      
H           107.07      25.29       -85.84      
H           105.98007   24.28486    -85.00055   
H           100.63      25.04       -80.95      
H           99.04       24.09       -81.28      
H           100.63579   23.57745    -81.8107    
H           99.82       27.21       -82.14      
H           98.28       26.36       -82.49      
H           99.16706    27.18805    -83.75762   
H           109.49      28.4        -82.94      
H           95.83       22.69       -85.46      
S           106.98      29.37       -80.63      
C           108.58      28.58       -82.41      
C           108.59      29.27       -81.22      
C           93.95       20.28       -90.22      
C           93.51       20.7        -88.92      
C           95.29       20.18       -90.38      
N           92.28       20.88       -88.45      
N           93.79       21.67       -86.92      
O           92.49       21.33       -87.13      
H           97.24       20.64       -89.65      
H           95.68       19.73       -91.28      
C           96.23       20.7        -89.36      
C           94.46       21.28       -87.99      
C           95.87       21.35       -88.21      
C           85.0        20.57       -103.8      
C           86.38       20.51       -103.84     
S           84.35       20.16       -102.22     
C           89.68       19.43       -98.85      
C           88.29       19.32       -98.7       
C           87.68       19.07       -97.46      
C           88.5        18.9        -96.32      
C           89.9        19.05       -96.5       
C           90.48       19.33       -97.7       
C           88.18       18.55       -94.86      
C           89.57       18.61       -94.21      
C           90.48       18.93       -95.22      
C           89.98       19.65       -100.37     
C           88.62       19.9        -100.94     
C           87.67       19.61       -100.0      
C           89.89       18.69       -92.85      
C           91.18       19.09       -92.5       
C           92.07       19.29       -93.59      
C           91.81       19.1        -94.93      
C           88.3        20.23       -102.21     
C           86.95       20.31       -102.49     
C           85.94       20.06       -101.54     
C           86.31       19.68       -100.25     
C           87.5        17.16       -94.65      
C           87.26       19.57       -94.31      
C           90.62       18.48       -101.08     
C           90.68       21.07       -100.63     
H           91.61       19.33       -97.78      
H           86.6        19.2        -97.33      
H           88.96       20.32       -103.0      
H           85.61       19.37       -99.44      
H           89.13       18.63       -92.05      
H           92.49       19.33       -95.71      
H           87.3        17.17       -93.58      
H           86.51       17.03       -95.11      
H           88.14289    16.32716    -94.93492   
H           86.38       19.42       -94.92      
H           86.78       19.37       -93.27      
H           87.54979    20.60286    -94.5032    
H           91.03       21.04       -101.68     
H           89.98       21.8        -100.38     
H           91.61297    21.18577    -100.07839  
H           91.74       18.66       -101.0      
H           90.43       18.21       -102.16     
H           90.43628    17.51902    -100.59951  
H           91.03       19.57       -90.35      
H           87.03       20.65       -104.72     
S           93.57       19.77       -92.87      
C           91.67       19.51       -91.26      
C           92.98       19.89       -91.26      
C           81.95       21.53       -106.85     
C           83.22       21.25       -107.2      
C           81.71       21.6        -105.53     
N           83.83       21.08       -108.38     
N           85.34       20.58       -106.8      
O           85.12       20.68       -108.14     
H           82.49       21.49       -103.4      
H           80.72       21.77       -105.11     
C           82.73       21.4        -104.49     
C           84.24       20.97       -106.22     
C           83.98       20.92       -104.83     
C           70.67       24.87       -118.75     
C           70.81       25.62       -117.65     
S           71.71       23.47       -118.54     
C           74.2        24.25       -112.76     
C           74.07       23.29       -113.75     
C           74.93       22.27       -113.86     
C           75.91       22.22       -112.94     
C           76.06       23.11       -111.87     
C           75.14       24.08       -111.68     
C           77.01       21.2        -112.89     
C           77.79       21.55       -111.6      
C           77.15       22.67       -110.92     
C           73.23       25.43       -113.09     
C           72.59       24.99       -114.37     
C           73.14       23.74       -114.8      
C           79.02       20.93       -111.09     
C           79.49       21.39       -109.79     
C           78.8        22.38       -109.12     
C           77.63       23.01       -109.65     
C           71.77       25.66       -115.25     
C           71.46       25.06       -116.5      
C           72.03       23.86       -116.88     
C           72.86       23.13       -116.01     
C           78.05       21.32       -113.99     
C           76.51       19.71       -112.69     
C           73.83       26.85       -113.29     
C           72.07       25.52       -112.06     
H           75.34       24.85       -110.89     
H           75.03       21.74       -114.77     
H           71.41       26.63       -114.99     
H           73.23       22.2        -116.32     
H           79.45       20.16       -111.69     
H           77.18       23.77       -109.06     
H           77.67       21.08       -115.02     
H           78.97       20.73       -113.86     
H           78.36352    22.34606    -114.18239  
H           75.94       19.59       -111.77     
H           77.35       19.06       -112.36     
H           75.9458     19.29578    -113.52558  
H           71.54       26.41       -112.38     
H           71.39       24.65       -112.33     
H           72.3307     25.65388    -111.01014  
H           74.01       27.28       -112.29     
H           73.12       27.52       -113.79     
H           74.80417    26.80702    -113.77708  
H           81.41       20.24       -109.31     
H           70.53       26.71       -117.63     
S           79.52       22.67       -107.54     
C           80.69       20.98       -109.02     
C           80.84       21.64       -107.81     
C           69.96       25.48       -122.99     
C           69.89       26.6        -122.11     
C           70.07       24.26       -122.35     
N           69.82       27.92       -122.34     
N           70.0        27.59       -120.13     
O           69.85       28.43       -121.17     
H           70.23       23.11       -120.57     
H           70.1        23.31       -122.89     
C           70.12       24.11       -120.93     
C           69.95       26.41       -120.71     
C           70.17       25.11       -120.06     
C           76.21       24.37       -138.24     
C           75.53       23.42       -137.65     
S           76.16       25.9        -137.34     
C           73.14       23.84       -132.15     
C           73.78       25.04       -132.58     
C           73.79       26.26       -131.79     
C           73.14       26.23       -130.61     
C           72.44       25.06       -130.21     
C           72.52       23.82       -130.92     
C           72.81       27.39       -129.72     
C           72.05       26.67       -128.53     
C           71.86       25.33       -128.86     
C           73.31       22.7        -133.13     
C           74.11       23.41       -134.2      
C           74.41       24.78       -133.89     
C           71.49       27.17       -127.37     
C           70.88       26.32       -126.47     
C           70.74       24.92       -126.77     
C           71.18       24.46       -128.03     
C           74.57       22.87       -135.37     
C           75.15       23.74       -136.33     
C           75.34       25.12       -136.02     
C           75.06       25.65       -134.78     
C           71.9        28.37       -130.46     
C           74.08       28.04       -129.15     
C           71.99       22.26       -133.81     
C           74.01       21.45       -132.57     
H           71.83       22.98       -130.65     
H           74.44       27.09       -131.99     
H           74.4        21.82       -135.76     
H           75.34       26.7        -134.56     
H           71.69       28.19       -127.14     
H           71.11       23.41       -128.24     
H           72.15       29.38       -130.18     
H           72.06       28.44       -131.51     
H           70.82561    28.33395    -130.27973  
H           74.62       28.28       -130.05     
H           73.78       29.05       -128.69     
H           74.63201    27.37178    -128.48904  
H           73.31       20.87       -131.98     
H           74.23       20.8        -133.42     
H           74.95432    21.69346    -132.08308  
H           71.27       22.13       -132.94     
H           72.19       21.3        -134.32     
H           71.51185    22.98446    -134.46926  
H           70.66       27.56       -124.72     
H           75.25       22.44       -138.03     
S           69.98       24.13       -125.41     
C           70.49       26.59       -125.13     
C           70.07       25.54       -124.42     
C           78.11       24.48       -142.21     
C           77.46       23.34       -141.64     
C           78.15       25.48       -141.31     
N           77.39       22.05       -142.04     
N           76.31       22.13       -140.13     
O           76.75       21.32       -141.13     
H           77.65       26.29       -139.37     
H           78.66       26.38       -141.58     
C           77.53       25.44       -140.03     
C           76.78       23.31       -140.41     
C           76.73       24.41       -139.57     
H           96.04       15.35       4.23        
H           78.47       24.56       -143.15     
