612

C           118.52      43.38       34.37       
C           119.72      43.71       35.06       
S           118.52      41.67       34.15       
C           123.81      39.72       36.95       
C           122.76      39.07       36.31       
C           122.79      37.67       36.01       
C           123.93      36.98       36.36       
C           124.92      37.57       37.14       
C           124.91      38.96       37.43       
C           124.31      35.49       36.07       
C           125.67      35.36       36.8        
C           125.92      36.56       37.49       
C           123.7       41.21       37.07       
C           122.37      41.43       36.35       
C           121.81      40.1        35.97       
C           126.41      34.24       37.08       
C           127.38      34.32       38.07       
C           127.66      35.54       38.7        
C           127.02      36.71       38.33       
C           121.73      42.6        36.16       
C           120.54      42.59       35.46       
C           119.96      41.34       35.05       
C           120.54      40.1        35.32       
C           124.43      35.32       34.51       
C           123.34      34.45       36.74       
C           124.78      41.91       36.26       
C           123.52      41.76       38.55       
H           125.64      39.43       38.11       
H           121.95      37.14       35.45       
H           122.15      43.51       36.51       
H           120.03      39.19       34.99       
H           126.25      33.33       36.44       
H           127.25      37.66       38.8        
H           123.65      35.76       34.04       
H           124.46      34.32       34.12       
H           125.34593   35.77796    34.13658    
H           123.42      34.65       37.86       
H           123.84      33.52       36.49       
H           122.2803    34.42881    36.48567    
H           124.57      41.89       38.85       
H           122.99      42.72       38.5        
H           123.01996   41.03936    39.1971     
H           125.77      41.67       36.76       
H           124.64      42.96       36.3        
H           124.82378   41.55248    35.23123    
H           128.04      32.14       38.17       
H           119.8       44.81       35.26       
S           129.02      35.26       39.82       
C           128.2       33.22       38.52       
C           129.06      33.54       39.5        
C           115.68      45.85       32.06       
C           116.97      46.34       32.28       
C           115.36      44.69       32.63       
N           117.53      47.51       31.93       
N           119.05      46.33       33.12       
O           118.78      47.36       32.39       
H           116.0       42.83       33.75       
H           114.4       44.23       32.48       
C           116.23      43.89       33.43       
C           117.94      45.55       33.03       
C           117.61      44.26       33.62       
C           103.07      51.83       22.84       
C           102.91      50.76       23.62       
S           104.69      52.52       22.88       
C           107.57      48.59       27.04       
C           107.78      49.81       26.39       
C           109.01      50.54       26.52       
C           110.02      49.99       27.34       
C           109.81      48.74       27.9        
C           108.62      48.02       27.81       
C           111.42      50.51       27.69       
C           111.83      49.39       28.67       
C           111.0       48.28       28.65       
C           106.08      48.14       26.99       
C           105.51      49.29       26.04       
C           106.6       50.16       25.69       
C           113.06      49.34       29.31       
C           113.42      48.03       29.81       
C           112.56      46.9        29.77       
C           111.28      47.14       29.34       
C           104.31      49.46       25.38       
C           104.08      50.45       24.45       
C           105.14      51.39       24.14       
C           106.37      51.26       24.81       
C           111.34      51.9        28.36       
C           112.41      50.54       26.42       
C           105.28      48.11       28.34       
C           105.86      46.85       26.08       
H           108.46      47.07       28.34       
H           109.01      51.56       26.15       
H           103.53      48.83       25.61       
H           107.14      52.05       24.74       
H           113.59      50.25       29.54       
H           110.58      46.33       29.48       
H           110.95      52.6        27.58       
H           112.43      52.27       28.48       
H           110.75868   51.92836    29.28161    
H           112.45      49.57       25.97       
H           113.39      50.82       26.83       
H           112.13677   51.28263    25.67037    
H           104.78      46.66       26.03       
H           106.28      47.15       25.09       
H           106.37102   45.9699     26.47037    
H           104.65      47.22       28.43       
H           105.98      47.97       29.18       
H           104.83321   49.08038    28.55642    
H           115.48      48.52       30.61       
H           101.97      50.21       23.68       
S           113.29      45.56       30.6        
C           114.7       47.75       30.52       
C           114.7       46.5        31.1        
C           99.85       54.21       20.84       
C           101.22      54.62       20.71       
C           99.74       52.99       21.35       
N           101.72      55.75       20.04       
N           103.41      54.43       20.99       
O           103.1       55.55       20.25       
H           100.5       51.27       22.29       
H           98.73       52.63       21.36       
C           100.8       52.18       21.88       
C           102.29      53.79       21.23       
C           102.11      52.61       22.01       
C           89.37       62.49       11.33       
C           89.09       61.14       11.51       
S           90.65       63.03       12.41       
C           92.15       57.7        15.56       
C           92.43       59.09       15.52       
C           93.53       59.59       16.2        
C           94.25       58.82       17.0        
C           93.86       57.46       17.18       
C           92.92       56.88       16.35       
C           95.35       59.31       17.93       
C           95.75       58.0        18.53       
C           94.97       56.89       17.98       
C           91.01       57.37       14.65       
C           90.69       58.79       14.04       
C           91.57       59.79       14.56       
C           96.8        57.82       19.35       
C           97.25       56.53       19.6        
C           96.56       55.4        19.0        
C           95.43       55.57       18.18       
C           89.86       59.12       12.95       
C           89.91       60.52       12.53       
C           90.85       61.39       13.08       
C           91.71       61.05       14.11       
C           94.93       60.23       19.06       
C           96.46       59.91       17.05       
C           89.82       56.83       15.49       
C           91.46       56.41       13.56       
H           92.84       55.74       16.37       
H           93.77       60.63       16.06       
H           89.21       58.42       12.48       
H           92.32       61.76       14.66       
H           97.35       58.64       19.72       
H           94.97       54.67       17.81       
H           95.77       60.51       19.65       
H           94.51       61.13       18.68       
H           94.12974    59.77371    19.64265    
H           95.97       60.87       16.7        
H           97.31       60.03       17.67       
H           96.75171    59.23629    16.24432    
H           92.12       57.04       12.99       
H           92.02       55.58       14.02       
H           90.69522    55.96268    12.92509    
H           89.74       55.78       15.73       
H           89.91       57.31       16.46       
H           88.81588    57.10774    15.16953    
H           99.01       56.81       20.88       
H           88.33       60.65       10.93       
S           97.52       53.96       19.37       
C           98.4        56.17       20.3        
C           98.68       54.89       20.32       
C           88.46       65.62       8.22        
C           87.67       64.38       8.3         
C           89.44       65.57       9.16        
N           86.56       63.99       7.66        
N           87.18       62.32       8.97        
O           86.24       62.75       8.1         
H           90.55       64.83       10.77       
H           90.09       66.42       9.26        
C           89.64       64.59       10.14       
C           87.96       63.3        9.21        
C           88.94       63.46       10.3        
C           93.7        70.52       -5.8        
C           94.47       70.77       -4.68       
S           92.03       70.25       -5.5        
C           91.86       70.15       0.86        
C           91.01       70.18       -0.27       
C           89.63       70.0        -0.16       
C           89.14       69.76       1.17        
C           90.03       69.78       2.23        
C           91.38       69.99       2.17        
C           87.84       69.06       1.61        
C           88.01       68.96       3.13        
C           89.34       69.31       3.42        
C           93.3        70.49       0.38        
C           93.18       70.34       -1.17       
C           91.81       70.29       -1.48       
C           87.31       68.21       3.98        
C           87.91       67.78       5.2         
C           89.15       68.28       5.53        
C           89.88       69.13       4.67        
C           94.1        70.58       -2.14       
C           93.71       70.56       -3.52       
C           92.3        70.43       -3.78       
C           91.31       70.33       -2.8        
C           87.67       67.63       0.99        
C           86.62       70.0        1.25        
C           94.26       69.39       0.98        
C           93.73       71.9        0.78        
H           92.03       70.11       3.05        
H           89.04       69.9        -1.0        
H           95.1        70.65       -1.83       
H           90.24       70.19       -3.08       
H           86.32       67.82       3.71        
H           90.89       69.37       4.79        
H           86.65       67.25       1.12        
H           87.73       67.64       -0.14       
H           88.39509    66.89794    1.34557     
H           86.56       70.04       0.15        
H           85.67       69.56       1.51        
H           86.74726    70.98982    1.68835     
H           93.93       71.91       1.85        
H           94.64       72.14       0.18        
H           93.02067    72.67583    0.49183     
H           94.32       69.5        2.08        
H           95.3        69.53       0.63        
H           93.94545    68.36057    0.80843     
H           86.54       66.32       6.05        
H           95.47       71.08       -4.65       
S           89.75       67.7        7.1         
C           87.5        66.83       6.14        
C           88.41       66.62       7.14        
C           94.74       70.82       -10.11      
C           95.41       71.59       -9.12       
C           93.63       70.11       -9.63       
N           96.36       72.43       -9.31       
N           95.95       72.34       -7.06       
O           96.66       72.89       -8.06       
H           92.72       69.35       -7.88       
H           92.96       69.51       -10.23      
C           93.45       70.01       -8.21       
C           95.11       71.53       -7.69       
C           94.06       70.72       -7.19       
C           97.72       72.82       -26.1       
C           96.52       72.45       -25.71      
S           98.9        72.58       -24.77      
C           95.14       71.27       -19.89      
C           96.52       71.17       -20.28      
C           97.52       70.86       -19.36      
C           97.2        70.62       -18.02      
C           95.86       70.75       -17.62      
C           94.83       71.08       -18.52      
C           98.1        70.57       -16.83      
C           97.14       70.65       -15.64      
C           95.79       70.65       -16.19      
C           94.29       71.81       -21.08      
C           95.43       71.86       -22.13      
C           96.7        71.74       -21.6       
C           97.39       70.78       -14.32      
C           96.31       70.76       -13.46      
C           95.03       70.69       -14.01      
C           94.72       70.71       -15.35      
C           95.28       72.08       -23.5       
C           96.42       72.23       -24.29      
C           97.64       72.3        -23.64      
C           97.87       72.02       -22.28      
C           99.11       71.73       -16.74      
C           98.79       69.16       -16.82      
C           93.86       73.27       -20.65      
C           93.05       71.0        -21.61      
H           93.78       71.05       -18.19      
H           98.56       70.94       -19.67      
H           94.3        72.2        -23.88      
H           98.87       71.96       -21.91      
H           98.4        70.82       -13.86      
H           93.68       70.79       -15.6       
H           99.91       71.55       -17.47      
H           99.57       71.86       -15.74      
H           98.57416    72.6769     -16.80606   
H           99.54       69.16       -17.66      
H           99.29       68.91       -15.89      
H           98.13085    68.3024     -16.95467   
H           92.51       71.63       -22.31      
H           93.5        70.23       -22.26      
H           92.50228    70.54475    -20.78486   
H           92.9        73.28       -20.18      
H           94.52       73.55       -19.76      
H           93.9318     74.00234    -21.45413   
H           97.28       70.88       -11.46      
H           95.66       72.64       -26.31      
S           93.88       70.8        -12.73      
C           96.36       70.92       -12.08      
C           95.18       70.85       -11.52      
C           98.93       73.87       -30.27      
C           99.84       74.01       -29.15      
C           97.75       73.29       -29.95      
N           101.08      74.44       -29.12      
N           100.51      73.93       -27.0       
O           101.51      74.4        -27.78      
H           96.45       72.5        -28.41      
H           96.98       73.07       -30.74      
C           97.38       72.95       -28.56      
C           99.49       73.68       -27.77      
C           98.18       73.18       -27.46      
C           99.42       79.83       -45.77      
C           98.87       78.62       -45.52      
S           100.29      80.49       -44.37      
C           99.0        76.13       -39.96      
C           99.84       77.28       -40.11      
C           100.65      77.8        -39.04      
C           100.51      77.25       -37.78      
C           99.54       76.17       -37.57      
C           98.92       75.58       -38.66      
C           101.19      77.73       -36.48      
C           100.52      76.82       -35.48      
C           99.49       75.98       -36.1       
C           98.08       76.04       -41.2       
C           98.63       76.99       -42.19      
C           99.61       77.82       -41.51      
C           100.66      76.67       -34.13      
C           99.98       75.72       -33.38      
C           99.01       74.93       -34.03      
C           98.71       75.01       -35.37      
C           98.25       77.24       -43.51      
C           98.91       78.22       -44.14      
C           99.69       79.16       -43.42      
C           100.12      78.99       -42.06      
C           100.84      79.23       -36.25      
C           102.73      77.43       -36.43      
C           96.63       76.46       -40.8       
C           97.98       74.54       -41.76      
H           98.15       74.77       -38.46      
H           101.26      78.71       -39.09      
H           97.63       76.57       -44.12      
H           100.82      79.67       -41.52      
H           101.38      77.2        -33.55      
H           97.92       74.43       -35.81      
H           101.5       79.65       -35.55      
H           100.98      79.76       -37.18      
H           99.78948    79.33436    -35.97867   
H           103.13      77.8        -37.4       
H           103.13      77.9        -35.53      
H           102.95883   76.36451    -36.40855   
H           97.0        74.3        -41.95      
H           98.39       74.58       -42.79      
H           98.48599    73.78469    -41.15868   
H           96.19       75.53       -40.35      
H           96.57       77.37       -40.19      
H           95.98575    76.6124     -41.66592   
H           100.64      76.0        -31.28      
H           98.31       78.06       -46.31      
S           98.24       73.72       -32.96      
C           100.0       75.46       -31.95      
C           99.21       74.4        -31.62      
C           99.59       81.12       -50.03      
C           99.06       82.02       -49.06      
C           100.18      80.02       -49.49      
N           98.55       83.24       -49.15      
N           98.42       82.64       -46.95      
O           98.2        83.57       -47.86      
H           100.48      78.63       -47.91      
H           100.59      79.3        -50.15      
C           100.15      79.66       -48.1       
C           99.04       81.65       -47.6       
C           99.58       80.41       -47.1       
C           90.93       76.24       -62.18      
C           92.05       75.54       -61.76      
S           90.94       77.93       -61.86      
C           96.38       78.44       -58.7       
C           95.38       79.28       -59.12      
C           95.23       80.54       -58.65      
C           96.09       80.94       -57.63      
C           97.25       80.12       -57.3       
C           97.35       78.89       -57.86      
C           96.11       82.18       -56.75      
C           97.18       81.81       -55.7       
C           97.87       80.63       -56.08      
C           96.14       77.02       -59.11      
C           94.9        77.16       -59.93      
C           94.45       78.49       -59.95      
C           97.26       82.36       -54.45      
C           98.08       81.75       -53.49      
C           98.77       80.57       -53.87      
C           98.79       80.07       -55.18      
C           94.22       76.14       -60.52      
C           93.0        76.41       -61.08      
C           92.52       77.74       -61.17      
C           93.19       78.81       -60.57      
C           94.76       82.46       -56.04      
C           96.57       83.46       -57.54      
C           95.78       76.04       -57.97      
C           97.35       76.52       -59.99      
H           98.01       78.13       -57.45      
H           94.26       81.02       -58.82      
H           94.61       75.06       -60.58      
H           92.8        79.85       -60.58      
H           96.66       83.21       -54.18      
H           99.45       79.2        -55.39      
H           94.85       83.35       -55.37      
H           94.18       82.78       -56.83      
H           94.35892    81.60053    -55.50283   
H           96.1        83.54       -58.51      
H           96.12       84.32       -57.04      
H           97.65478    83.47409    -57.64566   
H           98.18       76.01       -59.38      
H           96.97       75.86       -60.79      
H           97.83278    77.33423    -60.53042   
H           96.59       75.96       -57.23      
H           95.54       75.01       -58.42      
H           94.90115    76.3142     -57.38644   
H           97.99       82.94       -51.62      
H           92.16       74.43       -61.76      
S           99.68       79.91       -52.52      
C           98.38       82.07       -52.13      
C           99.24       81.25       -51.49      
C           87.4        74.3        -63.95      
C           87.31       75.66       -63.53      
C           88.62       73.68       -63.76      
N           86.3        76.5        -63.45      
N           88.13       77.48       -62.54      
O           86.73       77.59       -62.72      
H           90.74       73.79       -63.1       
H           88.85       72.75       -64.14      
C           89.75       74.32       -63.21      
C           88.46       76.27       -62.88      
C           89.78       75.62       -62.8       
C           76.37       68.52       -75.08      
C           76.78       69.8        -74.99      
S           77.04       67.48       -73.88      
C           81.0        71.57       -70.98      
C           80.57       70.22       -70.83      
C           81.18       69.45       -69.85      
C           82.18       70.03       -69.06      
C           82.46       71.38       -69.26      
C           81.87       72.22       -70.15      
C           83.32       69.39       -68.21      
C           84.11       70.63       -67.8       
C           83.53       71.79       -68.27      
C           80.24       72.26       -72.16      
C           79.36       71.16       -72.58      
C           79.62       69.93       -71.9       
C           85.01       70.72       -66.71      
C           85.53       72.01       -66.28      
C           85.11       73.14       -66.96      
C           84.18       73.04       -68.01      
C           78.34       71.18       -73.5       
C           77.73       69.99       -73.89      
C           78.14       68.72       -73.34      
C           79.03       68.69       -72.26      
C           84.08       68.42       -69.22      
C           82.76       68.5        -67.08      
C           81.15       72.64       -73.35      
C           79.31       73.39       -71.63      
H           82.27       73.16       -70.47      
H           81.02       68.39       -69.84      
H           77.94       72.15       -73.85      
H           79.29       67.79       -71.76      
H           85.29       69.87       -66.16      
H           83.83       73.93       -68.56      
H           83.72       67.35       -69.4       
H           84.03       68.88       -70.22      
H           85.13539    68.22033    -69.03459   
H           82.04       67.81       -67.54      
H           83.51       67.94       -66.65      
H           82.32741    69.05818    -66.2497    
H           78.37       73.31       -72.06      
H           79.19       73.2        -70.61      
H           79.65978    74.41834    -71.72094   
H           81.92       73.39       -73.15      
H           80.56       73.02       -74.22      
H           81.82617    71.84873    -73.6737    
H           86.78       71.65       -64.38      
H           76.48       70.64       -75.63      
S           85.95       74.5        -66.25      
C           86.33       72.34       -65.1       
C           86.47       73.64       -64.88      
C           73.85       66.55       -78.07      
C           73.52       67.77       -77.5       
C           75.12       66.11       -77.72      
N           72.43       68.51       -77.64      
N           73.71       69.59       -76.17      
O           72.46       69.53       -76.7       
H           76.86       66.26       -76.45      
H           75.56       65.23       -78.17      
C           75.93       66.75       -76.71      
C           74.32       68.47       -76.56      
C           75.53       67.92       -76.09      
C           64.8        55.29       -84.49      
C           66.11       55.26       -84.76      
S           64.28       56.95       -84.57      
C           69.86       60.04       -84.04      
C           68.48       60.35       -84.23      
C           67.91       61.61       -83.99      
C           68.76       62.59       -83.41      
C           70.12       62.2        -83.16      
C           70.69       60.99       -83.49      
C           68.41       63.94       -82.74      
C           69.79       64.24       -82.16      
C           70.74       63.23       -82.42      
C           70.13       58.5        -84.26      
C           68.75       58.07       -84.76      
C           67.74       59.14       -84.6       
C           70.09       65.25       -81.25      
C           71.27       65.21       -80.49      
C           72.19       64.15       -80.75      
C           71.95       63.23       -81.77      
C           68.23       56.82       -84.99      
C           66.79       56.57       -84.96      
C           65.9        57.62       -84.74      
C           66.33       58.89       -84.59      
C           67.27       63.86       -81.69      
C           68.28       65.13       -83.73      
C           70.63       57.79       -82.92      
C           71.18       58.31       -85.36      
H           71.68       60.79       -83.14      
H           66.85       61.79       -84.14      
H           68.93       56.0        -85.0       
H           65.56       59.69       -84.53      
H           69.36       66.02       -81.02      
H           72.66       62.45       -81.92      
H           66.35       63.53       -82.13      
H           66.98       64.83       -81.3       
H           67.54841    63.20794    -80.86211   
H           69.17       65.43       -84.32      
H           68.03       66.1        -83.34      
H           67.5529     64.89733    -84.508     
H           71.15       57.3        -85.72      
H           70.95       58.82       -86.29      
H           72.17869    58.67449    -85.11944   
H           71.64       58.21       -82.68      
H           70.67       56.76       -83.14      
H           70.002      58.01637    -82.05833   
H           71.24       67.09       -79.21      
H           66.68       54.35       -84.84      
S           73.45       64.27       -79.57      
C           71.7        66.13       -79.43      
C           72.91       65.79       -78.9       
C           61.95       52.48       -82.63      
C           63.21       52.03       -83.11      
C           61.78       53.83       -82.66      
N           63.81       50.84       -83.0       
N           65.28       52.19       -84.07      
O           65.04       50.92       -83.6       
H           62.36       55.72       -83.44      
H           60.82       54.23       -82.35      
C           62.7        54.67       -83.38      
C           64.21       52.91       -83.76      
C           63.88       54.3        -83.98      
C           48.26       45.41       -76.53      
C           48.49       46.74       -76.38      
S           49.59       44.64       -77.36      
C           53.73       49.42       -78.22      
C           53.67       48.03       -78.4       
C           54.72       47.37       -78.98      
C           55.8        48.01       -79.45      
C           55.91       49.42       -79.23      
C           54.86       50.16       -78.59      
C           56.84       47.41       -80.39      
C           57.76       48.65       -80.47      
C           57.21       49.8        -79.82      
C           52.52       49.89       -77.42      
C           51.65       48.6        -77.32      
C           52.39       47.49       -77.82      
C           58.92       48.8        -81.15      
C           59.63       50.02       -81.15      
C           59.02       51.1        -80.5       
C           57.78       51.02       -79.84      
C           50.4        48.49       -76.85      
C           49.85       47.19       -76.81      
C           50.57       46.1        -77.25      
C           51.95       46.2        -77.67      
C           56.22       47.2        -81.79      
C           57.65       46.17       -79.87      
C           51.7        51.04       -78.13      
C           52.83       50.23       -75.94      
H           54.9        51.28       -78.51      
H           54.68       46.28       -79.11      
H           49.73       49.32       -76.5       
H           52.56       45.29       -77.9       
H           59.31       48.02       -81.69      
H           57.36       51.83       -79.3       
H           55.74       46.28       -81.69      
H           55.55       48.08       -81.92      
H           56.87846    47.193      -82.65861   
H           57.13       45.23       -80.14      
H           58.63       46.19       -80.4       
H           57.81401    46.21278    -78.79326   
H           51.82       50.28       -75.48      
H           53.25       49.39       -75.34      
H           53.46695    51.09093    -75.73702   
H           52.29       51.97       -78.03      
H           50.76       51.22       -77.61      
H           51.48867    50.83571    -79.17962   
H           61.38       49.55       -82.47      
H           47.74       47.41       -76.08      
S           59.99       52.57       -80.74      
C           60.82       50.34       -81.9       
C           61.03       51.71       -81.89      
C           44.56       43.27       -75.65      
C           44.84       44.52       -74.99      
C           45.54       42.89       -76.49      
N           44.1        45.18       -74.13      
N           46.02       46.32       -74.56      
O           44.85       46.28       -73.84      
H           47.41       43.23       -77.54      
H           45.51       41.99       -76.98      
C           46.74       43.62       -76.78      
C           46.1        45.21       -75.19      
C           47.1        44.72       -76.09      
H           129.92      32.92       39.85       
H           43.93       42.54       -75.17      
