612

C           169.57      24.35       27.26       
C           170.09      23.59       28.27       
S           170.76      25.46       26.64       
C           175.45      25.07       30.94       
C           175.2       25.69       29.68       
C           176.06      26.66       29.13       
C           177.16      27.0        29.88       
C           177.28      26.39       31.17       
C           176.46      25.51       31.68       
C           178.26      27.99       29.63       
C           178.91      27.99       31.04       
C           178.4       26.96       31.87       
C           174.33      24.07       31.36       
C           173.37      24.32       30.18       
C           173.95      25.18       29.2        
C           180.07      28.72       31.32       
C           180.65      28.49       32.61       
C           180.1       27.45       33.46       
C           178.95      26.7        33.13       
C           172.18      23.68       29.88       
C           171.38      24.13       28.8        
C           171.93      25.03       27.94       
C           173.25      25.5        27.97       
C           177.85      29.43       29.35       
C           179.3       27.49       28.61       
C           173.79      24.41       32.75       
C           174.67      22.55       31.35       
H           176.63      25.13       32.66       
H           175.92      27.18       28.19       
H           171.67      22.95       30.5        
H           173.68      26.16       27.23       
H           180.51      29.41       30.58       
H           178.53      26.01       33.86       
H           177.44      29.61       28.34       
H           178.76      30.06       29.3        
H           177.13444   29.85934    30.05125    
H           179.65      26.58       29.1        
H           180.11      28.27       28.5        
H           178.92056   27.27839    27.61033    
H           175.22      22.26       32.19       
H           173.78      22.02       31.31       
H           175.21059   22.22416    30.46135    
H           174.72      24.41       33.43       
H           173.12      23.59       33.02       
H           173.28981   25.37465    32.83575    
H           182.5       29.71       32.66       
H           169.49      22.86       28.75       
S           180.94      27.39       34.96       
C           181.87      29.01       33.21       
C           182.1       28.62       34.51       
C           165.69      24.19       25.18       
C           166.22      23.05       25.83       
C           166.51      25.27       25.24       
N           165.79      21.79       25.88       
N           167.8       21.81       26.9        
O           166.66      21.06       26.58       
H           168.29      26.23       25.85       
H           166.13      26.16       24.75       
C           167.76      25.3        25.91       
C           167.53      23.02       26.45       
C           168.31      24.21       26.56       
C           151.25      26.54       17.73       
C           152.22      27.38       17.54       
S           151.81      24.93       18.2        
C           157.76      26.34       19.71       
C           157.0       25.14       19.6        
C           157.41      23.94       20.22       
C           158.65      23.94       20.84       
C           159.41      25.07       20.93       
C           158.98      26.31       20.42       
C           159.27      22.67       21.56       
C           160.5       23.34       22.11       
C           160.52      24.74       21.8        
C           157.08      27.55       19.06       
C           155.81      26.89       18.55       
C           155.73      25.52       18.97       
C           161.41      22.79       22.93       
C           162.51      23.6        23.4        
C           162.46      24.99       23.08       
C           161.53      25.59       22.26       
C           154.71      27.58       17.95       
C           153.46      26.9        18.08       
C           153.41      25.5        18.37       
C           154.53      24.75       18.74       
C           159.64      21.61       20.55       
C           158.34      22.29       22.73       
C           158.14      28.07       18.05       
C           156.76      28.59       20.18       
H           159.56      27.23       20.62       
H           156.84      23.06       20.36       
H           154.78      28.58       17.7        
H           154.46      23.69       18.98       
H           161.41      21.7        23.07       
H           161.5       26.64       22.22       
H           158.77      21.25       19.95       
H           159.96      20.66       20.93       
H           160.26298   22.0468     19.76949    
H           158.08      23.19       23.22       
H           158.92      21.67       23.36       
H           157.48759   21.65779    22.48138    
H           157.75      29.0        20.54       
H           156.14      29.41       19.92       
H           156.2512    28.21203    21.06677    
H           159.02      28.49       18.46       
H           158.35      27.34       17.34       
H           157.65763   28.69918    17.30197    
H           163.65      22.27       24.64       
H           152.13      28.37       17.14       
S           163.72      25.74       23.98       
C           163.56      23.24       24.28       
C           164.41      24.21       24.48       
C           146.86      27.08       17.47       
C           147.81      27.84       16.64       
C           147.5       26.25       18.36       
N           147.63      28.81       15.7        
N           149.82      28.54       15.94       
O           148.83      29.27       15.38       
H           149.28      25.38       19.12       
H           146.92      25.73       19.17       
C           148.9       26.1        18.37       
C           149.22      27.69       16.76       
C           149.82      26.71       17.64       
C           130.33      29.14       19.02       
C           130.99      27.93       19.25       
S           131.46      30.18       18.12       
C           137.02      27.11       18.84       
C           136.54      28.32       18.39       
C           137.43      29.31       17.89       
C           138.75      28.93       17.71       
C           139.28      27.82       18.37       
C           138.39      26.88       18.97       
C           139.91      29.66       16.94       
C           141.13      28.79       17.22       
C           140.73      27.78       18.12       
C           135.85      26.2        19.31       
C           134.69      27.05       18.98       
C           135.09      28.28       18.32       
C           142.39      29.09       16.81       
C           143.32      28.13       17.25       
C           143.01      27.09       18.19       
C           141.64      26.97       18.64       
C           133.35      26.86       19.24       
C           132.42      27.86       18.99       
C           132.79      29.05       18.36       
C           134.11      29.3        17.99       
C           140.07      31.1        17.68       
C           139.51      29.76       15.43       
C           136.01      25.87       20.82       
C           135.84      24.86       18.42       
H           138.7       25.9        19.21       
H           137.01      30.29       17.54       
H           133.05      25.99       19.78       
H           134.49      30.21       17.6        
H           142.52      29.78       15.95       
H           141.38      26.23       19.37       
H           139.12      31.33       18.17       
H           140.75      30.96       18.59       
H           140.50988   31.88445    17.06417    
H           138.83      30.62       15.29       
H           140.37      29.93       14.79       
H           138.84256   28.98246    15.05843    
H           136.52      24.22       18.93       
H           134.87      24.4        18.36       
H           136.11723   25.04482    17.38217    
H           135.46      24.96       21.1        
H           136.98      25.48       21.15       
H           135.7259    26.69315    21.4756     
H           145.06      28.76       16.03       
H           130.45      27.09       19.61       
S           144.5       26.36       18.81       
C           144.68      28.1        16.83       
C           145.41      27.29       17.58       
C           126.19      30.64       18.82       
C           126.52      29.21       18.61       
C           127.28      31.36       19.27       
N           125.69      28.32       18.13       
N           127.77      27.38       18.31       
O           126.47      27.24       17.99       
H           129.31      31.49       19.58       
H           127.1       32.33       19.59       
C           128.53      30.82       19.3        
C           127.88      28.72       18.64       
C           128.92      29.56       19.02       
C           117.16      38.57       7.46        
C           118.34      39.05       7.95        
S           116.79      37.07       8.24        
C           121.16      36.73       12.92       
C           120.21      35.93       12.25       
C           119.87      34.66       12.69       
C           120.5       34.21       13.84       
C           121.45      34.97       14.52       
C           121.74      36.27       14.13       
C           120.31      32.83       14.53       
C           121.6       32.78       15.33       
C           122.12      34.09       15.51       
C           120.99      38.15       12.33       
C           120.2       37.9        11.02       
C           119.58      36.61       11.2        
C           122.1       31.74       16.11       
C           123.24      31.9        16.91       
C           123.79      33.17       16.98       
C           123.21      34.28       16.46       
C           119.78      38.75       10.01       
C           118.81      38.35       9.09        
C           118.08      37.22       9.43        
C           118.52      36.3        10.43       
C           120.19      31.55       13.6        
C           119.08      32.87       15.48       
C           122.45      38.51       11.99       
C           120.3       39.22       13.23       
H           122.69      36.74       14.48       
H           119.12      34.1        12.16       
H           120.32      39.68       9.84        
H           118.01      35.34       10.53       
H           121.77      30.67       15.97       
H           123.59      35.23       16.64       
H           119.69      30.89       14.33       
H           119.34      31.75       12.88       
H           121.09584   31.18069    13.11921    
H           118.26      32.29       15.0        
H           119.3       32.25       16.39       
H           118.72021   33.87325    15.70833    
H           121.03      39.92       13.64       
H           119.56      39.79       12.59       
H           119.68827   38.81946    14.03836    
H           122.96      38.54       12.91       
H           122.56      39.44       11.47       
H           123.02043   37.82961    11.35772    
H           123.79      29.91       17.64       
H           118.67      40.03       7.66        
S           125.05      33.15       18.29       
C           124.01      30.94       17.64       
C           125.05      31.4        18.34       
C           114.39      40.45       4.63        
C           115.72      40.91       4.76        
C           114.13      39.36       5.4         
N           116.28      41.79       4.0         
N           117.9       41.0        5.47        
O           117.59      41.8        4.35        
H           114.76      37.85       6.77        
H           113.15      38.97       5.46        
C           115.06      38.7        6.26        
C           116.74      40.23       5.56        
C           116.29      39.14       6.43        
C           100.91      48.11       -0.54       
C           101.01      46.76       -0.6        
S           102.3       48.84       0.14        
C           106.14      43.84       0.64        
C           106.26      45.26       0.7         
C           107.26      45.99       1.14        
C           108.3       45.22       1.64        
C           108.28      43.82       1.6         
C           107.23      43.1        1.08        
C           109.71      45.68       2.07        
C           110.24      44.36       2.69        
C           109.41      43.24       2.34        
C           104.74      43.36       0.24        
C           104.07      44.74       0.12        
C           104.95      45.79       0.33        
C           111.52      44.19       3.24        
C           111.92      42.84       3.41        
C           111.04      41.78       3.19        
C           109.79      41.93       2.68        
C           102.72      44.98       -0.25       
C           102.29      46.33       -0.3        
C           103.21      47.38       -0.01       
C           104.55      47.12       0.35        
C           109.65      46.9        2.98        
C           110.67      46.02       0.91        
C           104.27      42.43       1.38        
C           104.78      42.68       -1.08       
H           107.28      42.04       1.19        
H           107.24      47.1        1.18        
H           101.97      44.17       -0.48       
H           105.17      47.97       0.6         
H           112.17      44.99       3.58        
H           109.24      41.07       2.36        
H           109.19      47.77       2.54        
H           110.66      47.21       3.24        
H           109.16615   46.72528    3.94097     
H           110.63      47.08       0.6         
H           111.69      45.69       1.13        
H           110.3963    45.49421    -0.00473    
H           103.92      42.03       -1.06       
H           104.66      43.37       -1.91       
H           105.62043   42.0062     -1.24664    
H           104.09      41.41       0.98        
H           105.12      42.4        2.09        
H           103.44781   42.84461    1.96326     
H           113.9       43.18       4.25        
H           100.11      46.21       -1.01       
S           111.73      40.33       3.71        
C           113.18      42.47       3.91        
C           113.26      41.17       4.05        
C           97.55       50.68       -1.74       
C           98.89       51.08       -1.96       
C           97.41       49.45       -1.13       
N           99.44       52.14       -2.63       
N           101.12      50.73       -1.98       
O           100.81      51.89       -2.63       
H           98.29       47.66       -0.22       
H           96.45       49.22       -0.68       
C           98.53       48.6        -0.74       
C           100.0       50.23       -1.6        
C           99.82       48.98       -0.98       
C           83.36       57.41       -7.19       
C           83.33       56.13       -6.6        
S           84.99       58.08       -7.19       
C           88.53       53.43       -4.83       
C           88.65       54.81       -5.32       
C           89.87       55.43       -5.49       
C           90.95       54.78       -4.91       
C           90.86       53.49       -4.28       
C           89.64       52.77       -4.31       
C           92.31       55.44       -4.56       
C           93.04       54.25       -3.98       
C           92.2        53.16       -3.76       
C           87.1        52.9        -4.87       
C           86.39       54.16       -5.34       
C           87.31       55.17       -5.7        
C           94.36       54.13       -3.63       
C           94.85       52.9        -3.14       
C           93.99       51.79       -2.94       
C           92.69       51.91       -3.31       
C           85.07       54.37       -5.68       
C           84.69       55.62       -6.24       
C           85.68       56.59       -6.54       
C           87.06       56.39       -6.26       
C           92.18       56.54       -3.52       
C           93.27       55.85       -5.78       
C           86.54       52.43       -3.55       
C           86.84       51.94       -6.05       
H           89.51       51.79       -3.75       
H           90.03       56.41       -5.91       
H           84.3        53.63       -5.36       
H           87.82       57.13       -6.42       
H           94.98       54.99       -3.78       
H           92.0        51.07       -3.08       
H           92.87       57.39       -3.8        
H           91.2        57.03       -3.72       
H           92.17285    56.31113    -2.45432    
H           92.91       56.79       -6.26       
H           94.27       56.16       -5.48       
H           93.34901    55.09578    -6.56295    
H           85.88       51.41       -6.11       
H           86.92       52.61       -6.95       
H           87.58943    51.16174    -6.19412    
H           85.88       51.55       -3.74       
H           87.43       51.96       -3.18       
H           86.18607    53.13787    -2.8005     
H           96.97       53.44       -2.75       
H           82.43       55.57       -6.51       
S           94.91       50.42       -2.39       
C           96.23       52.62       -2.75       
C           96.36       51.42       -2.18       
C           79.97       59.57       -9.1        
C           81.35       60.04       -9.12       
C           79.91       58.44       -8.47       
N           81.78       61.11       -9.78       
N           83.51       60.16       -8.71       
O           83.08       61.13       -9.58       
H           80.66       56.69       -7.57       
H           78.95       57.92       -8.48       
C           80.96       57.68       -7.94       
C           82.44       59.35       -8.49       
C           82.23       58.09       -7.82       
C           67.42       65.93       -17.91      
C           67.43       64.63       -17.43      
S           68.76       66.83       -17.21      
C           71.73       62.4        -13.88      
C           71.84       63.8        -14.14      
C           72.95       64.57       -13.66      
C           73.84       63.88       -12.89      
C           73.72       62.54       -12.52      
C           72.64       61.84       -13.06      
C           75.18       64.47       -12.56      
C           75.88       63.32       -11.85      
C           74.99       62.22       -11.81      
C           70.54       61.68       -14.48      
C           69.9        62.91       -15.16      
C           70.7        64.11       -14.97      
C           77.16       63.2        -11.31      
C           77.55       61.99       -10.75      
C           76.6        60.94       -10.66      
C           75.35       61.01       -11.18      
C           68.8        63.06       -15.88      
C           68.53       64.3        -16.56      
C           69.32       65.43       -16.29      
C           70.42       65.39       -15.47      
C           74.98       65.88       -11.79      
C           76.02       64.78       -13.86      
C           69.64       61.08       -13.41      
C           70.82       60.61       -15.52      
H           72.67       60.77       -12.92      
H           72.92       65.65       -13.82      
H           68.09       62.24       -16.03      
H           71.03       66.29       -15.26      
H           77.75       64.11       -11.26      
H           74.72       60.19       -10.95      
H           75.57       66.65       -12.3       
H           73.9        66.15       -11.79      
H           75.24768    65.88       -10.73338   
H           75.54       65.57       -14.4       
H           76.99       65.06       -13.52      
H           76.06231    63.92675    -14.53696   
H           71.06       59.62       -15.14      
H           69.96       60.32       -16.15      
H           71.67149    60.85428    -16.15513   
H           70.21       60.46       -12.7       
H           69.03       60.4        -13.92      
H           69.04227    61.81837    -12.87556   
H           79.61       62.27       -10.12      
H           66.73       63.88       -17.79      
S           77.25       59.53       -9.81       
C           78.8        61.56       -10.16      
C           78.85       60.31       -9.63       
C           65.17       67.9        -21.16      
C           64.58       66.85       -20.42      
C           66.35       68.33       -20.67      
N           63.41       66.28       -20.61      
N           64.46       65.21       -18.83      
O           63.32       65.24       -19.64      
H           67.97       68.12       -19.27      
H           66.88       69.08       -21.17      
C           67.02       67.71       -19.59      
C           65.23       66.16       -19.27      
C           66.51       66.63       -18.82      
C           55.82       77.49       -30.18      
C           55.44       76.19       -30.23      
S           57.54       77.73       -30.22      
C           59.28       72.02       -28.09      
C           59.87       73.22       -28.54      
C           61.18       73.4        -28.23      
C           61.9        72.48       -27.41      
C           61.22       71.41       -26.74      
C           59.9        71.17       -27.12      
C           63.22       72.85       -26.66      
C           63.3        71.73       -25.67      
C           62.14       70.95       -25.68      
C           57.83       71.97       -28.56      
C           57.67       73.37       -29.18      
C           58.89       74.05       -29.18      
C           64.29       71.4        -24.72      
C           64.16       70.37       -23.84      
C           62.9        69.71       -23.8       
C           61.84       70.05       -24.68      
C           56.51       73.99       -29.55      
C           56.54       75.36       -29.85      
C           57.8        76.04       -29.85      
C           59.01       75.38       -29.55      
C           63.09       74.25       -26.02      
C           64.47       72.81       -27.56      
C           56.96       71.74       -27.33      
C           57.59       70.88       -29.68      
H           59.4        70.31       -26.73      
H           61.66       74.32       -28.59      
H           55.55       73.52       -29.55      
H           59.95       75.91       -29.65      
H           65.23       71.89       -24.9       
H           60.83       69.62       -24.53      
H           63.34       75.03       -26.78      
H           62.05       74.45       -25.66      
H           63.65589    74.46928    -25.11458   
H           64.34       73.59       -28.32      
H           65.25       73.23       -26.95      
H           64.63538    71.83928    -28.02738   
H           56.51       70.78       -29.8       
H           57.99       71.25       -30.63      
H           58.08291    69.92889    -29.47867   
H           57.31       70.73       -26.96      
H           55.93       71.59       -27.57      
H           57.03097    72.57033    -26.62742   
H           66.05       69.94       -22.8       
H           54.41       75.78       -30.3       
S           62.73       68.56       -22.49      
C           65.01       69.71       -22.91      
C           64.46       68.65       -22.18      
C           52.95       80.9        -29.27      
C           54.04       80.56       -28.52      
C           52.9        80.01       -30.35      
N           54.54       81.13       -27.42      
N           55.84       79.37       -27.79      
O           55.52       80.32       -26.95      
H           53.61       78.22       -31.46      
H           52.09       80.17       -31.04      
C           53.78       78.89       -30.65      
C           54.96       79.43       -28.75      
C           54.83       78.6        -29.9       
C           44.15       95.01       -27.63      
C           44.3        94.4        -28.85      
S           45.16       94.23       -26.42      
C           47.8        89.43       -29.45      
C           47.71       89.96       -28.12      
C           48.25       89.18       -27.04      
C           48.87       87.98       -27.32      
C           48.84       87.46       -28.6       
C           48.4        88.21       -29.73      
C           49.48       87.01       -26.28      
C           49.69       85.77       -27.14      
C           49.45       86.13       -28.51      
C           47.02       90.31       -30.43      
C           46.57       91.38       -29.52      
C           47.02       91.23       -28.19      
C           50.39       84.63       -26.83      
C           50.84       83.73       -27.84      
C           50.46       84.06       -29.15      
C           49.79       85.2        -29.56      
C           45.63       92.36       -29.81      
C           45.22       93.29       -28.79      
C           45.86       93.14       -27.53      
C           46.74       92.18       -27.24      
C           48.46       86.66       -25.19      
C           50.9        87.26       -25.7       
C           45.89       89.64       -31.12      
C           47.98       90.84       -31.55      
H           48.39       87.77       -30.74      
H           48.3        89.61       -26.03      
H           45.11       92.43       -30.76      
H           47.16       92.04       -26.28      
H           50.54       84.32       -25.82      
H           49.54       85.44       -30.59      
H           48.21       87.58       -24.67      
H           49.02       86.02       -24.47      
H           47.56664    86.1773     -25.58625   
H           51.56       87.63       -26.49      
H           51.4        86.4        -25.25      
H           50.93518    88.03385    -24.93318   
H           47.96       90.19       -32.49      
H           47.75       91.88       -31.7       
H           49.02208    90.88225    -31.23315   
H           46.14       88.83       -31.72      
H           45.47       90.35       -31.78      
H           45.01896    89.38902    -30.5147    
H           52.21       82.25       -26.92      
H           43.72       94.73       -29.7       
S           51.03       82.83       -30.2       
C           51.69       82.57       -27.8       
C           51.9        81.89       -28.95      
C           41.17       97.95       -26.06      
C           41.17       97.56       -27.43      
C           42.15       97.42       -25.36      
N           40.31       97.99       -28.43      
N           41.91       96.58       -29.24      
O           40.78       97.31       -29.45      
H           44.01       96.3        -25.21      
H           42.16       97.54       -24.26      
C           43.18       96.57       -25.89      
C           42.14       96.64       -27.91      
C           43.15       96.01       -27.13      
C           27.3        104.75      -20.25      
C           28.09       103.93      -19.46      
S           28.1        105.1       -21.76      
C           33.43       101.73      -21.13      
C           32.88       102.69      -22.0       
C           33.41       103.11      -23.18      
C           34.63       102.55      -23.47      
C           35.25       101.57      -22.67      
C           34.67       101.12      -21.47      
C           35.26       102.65      -24.86      
C           36.5        101.8       -24.66      
C           36.4        101.07      -23.44      
C           32.46       101.33      -20.04      
C           31.39       102.35      -20.26      
C           31.62       103.15      -21.44      
C           37.5        101.44      -25.63      
C           38.48       100.45      -25.29      
C           38.32       99.78       -24.07      
C           37.35       100.09      -23.08      
C           30.22       102.52      -19.56      
C           29.34       103.5       -20.05      
C           29.5        104.16      -21.27      
C           30.71       103.98      -21.93      
C           35.5        104.17      -25.12      
C           34.36       102.04      -25.93      
C           32.98       101.46      -18.62      
C           31.86       99.95       -20.23      
H           35.05       100.31      -20.96      
H           32.94       103.9       -23.8       
H           29.98       101.94      -18.65      
H           30.87       104.46      -22.92      
H           37.6        101.94      -26.63      
H           37.24       99.42       -22.22      
H           34.69       104.52      -25.7       
H           35.48       104.69      -24.16      
H           36.44091    104.41608   -25.61217   
H           33.49       102.67      -26.25      
H           35.0        101.78      -26.8       
H           33.85916    101.12298   -25.61962   
H           30.97       99.82       -19.58      
H           31.64       99.7        -21.22      
H           32.48712    99.12081    -19.9025    
H           33.95       100.92      -18.47      
H           32.26       101.13      -17.89      
H           33.1278     102.49458   -18.31033   
H           39.79       100.36      -27.18      
H           27.77       103.59      -18.48      
S           39.57       98.68       -23.82      
C           39.55       99.96       -26.16      
C           40.22       98.91       -25.49      
C           23.62       107.04      -19.33      
C           24.22       106.2       -18.37      
C           24.34       107.19      -20.49      
N           23.78       105.94      -17.15      
N           25.71       104.74      -17.6       
O           24.74       105.0       -16.69      
H           25.97       106.58      -21.71      
H           24.01       107.94      -21.2       
C           25.48       106.4       -20.78      
C           25.35       105.4       -18.68      
C           26.07       105.5       -19.91      
H           182.84      28.96       35.22       
H           22.65       107.47      -19.31      
