612

C           125.13      11.0        22.98       
C           126.24      11.03       22.16       
S           124.16      9.58        22.67       
C           127.69      6.44        18.45       
C           126.54      6.24        19.14       
C           125.82      5.05        19.06       
C           126.41      3.98        18.42       
C           127.63      4.2         17.71       
C           128.2       5.47        17.63       
C           125.96      2.5         18.38       
C           126.98      2.02        17.3        
C           128.03      2.97        17.0        
C           128.25      7.88        18.67       
C           127.34      8.42        19.69       
C           126.31      7.49        19.93       
C           127.13      0.78        16.8        
C           128.28      0.39        16.08       
C           129.25      1.39        15.73       
C           129.11      2.68        16.2        
C           127.46      9.57        20.49       
C           126.43      9.88        21.34       
C           125.31      9.04        21.52       
C           125.26      7.85        20.74       
C           124.59      2.31        17.68       
C           126.18      1.66        19.64       
C           128.2       8.64        17.34       
C           129.68      7.97        19.12       
H           129.03      5.66        16.95       
H           124.94      4.9         19.56       
H           128.19      10.37       20.34       
H           124.4       7.22        20.89       
H           126.4       -0.05       17.04       
H           129.83      3.47        16.0        
H           123.82      2.28        18.44       
H           124.56      1.3         17.29       
H           124.28567   3.05698     16.94685    
H           127.22      1.45        19.9        
H           125.72      0.71        19.43       
H           125.79414   2.11017     20.55463    
H           130.3       7.91        18.24       
H           129.69      8.85        19.72       
H           129.97274   7.11321     19.72689    
H           128.8       8.25        16.51       
H           128.66      9.65        17.56       
H           127.19216   8.6915      16.92804    
H           128.22      -1.84       15.87       
H           126.85      11.88       22.28       
S           130.58      0.69        14.79       
C           128.82      -0.93       15.66       
C           129.95      -0.96       14.94       
C           123.67      13.92       25.91       
C           124.18      14.28       24.6        
C           123.65      12.56       26.08       
N           124.36      15.51       24.08       
N           125.02      14.07       22.53       
O           124.77      15.39       22.79       
H           123.89      10.56       25.25       
H           123.41      12.14       27.06       
C           124.03      11.66       25.04       
C           124.7       13.39       23.62       
C           124.57      11.99       23.84       
C           119.6       25.86       36.6        
C           120.31      24.69       36.89       
S           119.19      25.88       34.88       
C           121.82      20.45       32.94       
C           121.06      21.48       32.35       
C           120.7       21.48       31.06       
C           121.03      20.36       30.36       
C           121.8       19.31       30.94       
C           122.12      19.31       32.25       
C           120.66      20.1        28.86       
C           121.53      18.92       28.59       
C           122.08      18.41       29.83       
C           122.2       20.71       34.4        
C           121.47      22.05       34.64       
C           120.78      22.44       33.41       
C           121.57      18.23       27.4        
C           122.21      16.96       27.47       
C           122.81      16.47       28.66       
C           122.75      17.21       29.87       
C           121.4       22.76       35.83       
C           120.64      23.9        35.76       
C           119.98      24.35       34.58       
C           120.03      23.6        33.37       
C           121.11      21.18       27.91       
C           119.1       19.91       28.74       
C           123.75      20.84       34.37       
C           121.64      19.63       35.37       
H           122.72      18.58       32.7        
H           120.34      22.32       30.51       
H           121.93      22.48       36.69       
H           119.53      23.99       32.47       
H           121.24      18.66       26.42       
H           123.11      16.77       30.77       
H           120.56      22.14       28.01       
H           120.95      20.84       26.9        
H           122.17906   21.34392    28.04541    
H           118.73      19.18       29.48       
H           118.94      19.65       27.71       
H           118.46503   20.75662    29.00104    
H           122.24      18.75       35.42       
H           121.69      20.19       36.28       
H           120.64758   19.25604    35.1183     
H           124.14      19.84       34.22       
H           124.16      21.3        33.52       
H           124.21012   21.1816     35.2972     
H           122.31      16.25       25.33       
H           120.68      24.48       37.94       
S           123.45      14.85       28.53       
C           122.37      16.0        26.41       
C           123.1       14.88       26.79       
C           117.92      29.04       39.21       
C           119.02      28.27       39.62       
C           117.53      28.68       37.96       
N           119.71      28.19       40.8        
N           120.6       26.66       39.38       
O           120.59      27.23       40.62       
H           117.49      27.49       36.22       
H           116.69      29.11       37.6        
C           118.05      27.69       37.09       
C           119.51      27.13       38.79       
C           119.14      26.96       37.41       
C           107.78      39.4        47.36       
C           107.6       39.01       46.07       
S           109.33      38.94       47.98       
C           111.97      35.73       43.11       
C           112.21      35.85       44.44       
C           113.36      35.44       45.09       
C           114.14      34.57       44.28       
C           113.88      34.36       42.91       
C           112.85      35.04       42.25       
C           115.3       33.65       44.71       
C           115.54      32.88       43.42       
C           114.73      33.33       42.38       
C           110.56      36.32       42.8        
C           110.12      37.01       44.06       
C           111.13      36.7        45.02       
C           116.49      31.95       43.14       
C           116.58      31.39       41.83       
C           115.73      31.84       40.82       
C           114.87      32.86       41.07       
C           109.01      37.84       44.26       
C           108.8       38.33       45.54       
C           109.8       38.09       46.49       
C           110.98      37.26       46.29       
C           114.84      32.63       45.75       
C           116.52      34.47       45.09       
C           109.52      35.19       42.39       
C           110.66      37.4        41.69       
H           112.73      35.06       41.18       
H           113.56      35.55       46.09       
H           108.34      38.03       43.45       
H           111.69      37.13       47.16       
H           117.22      31.67       43.91       
H           114.15      33.2        40.31       
H           115.66      32.05       46.16       
H           114.43      33.17       46.63       
H           114.14434   31.88515    45.36352    
H           116.46      34.87       46.1        
H           117.39      33.83       45.16       
H           116.6912    35.35455    44.47652    
H           109.87      38.11       41.73       
H           111.49      38.06       41.87       
H           110.82844   37.02803    40.67937    
H           108.75      35.69       41.87       
H           110.06      34.51       41.79       
H           109.19704   34.61584    43.25841    
H           118.23      29.83       41.83       
H           106.65      39.24       45.53       
S           116.09      31.05       39.29       
C           117.47      30.33       41.29       
C           117.28      30.03       40.01       
C           105.01      41.64       50.15       
C           104.62      41.08       48.87       
C           106.34      41.44       50.29       
N           103.41      40.95       48.45       
N           104.64      39.9        47.0        
O           103.4       40.3        47.32       
H           108.25      40.62       49.61       
H           106.85      41.93       51.13       
C           107.18      40.69       49.41       
C           105.38      40.29       47.98       
C           106.77      40.08       48.26       
C           95.93       52.65       58.83       
C           97.21       52.83       58.54       
S           95.29       51.08       58.34       
C           100.64      48.71       55.61       
C           99.28       48.45       55.73       
C           98.83       47.18       55.31       
C           99.61       46.34       54.57       
C           100.98      46.7        54.32       
C           101.44      47.98       54.81       
C           99.27       44.94       54.01       
C           100.65      44.57       53.37       
C           101.64      45.59       53.59       
C           100.99      50.09       56.26       
C           99.56       50.51       56.65       
C           98.62       49.52       56.44       
C           101.02      43.4        52.65       
C           102.32      43.33       52.15       
C           103.25      44.39       52.36       
C           102.88      45.56       53.04       
C           99.16       51.6        57.42       
C           97.8        51.71       57.91       
C           96.89       50.63       57.66       
C           97.32       49.58       56.91       
C           98.03       45.07       53.06       
C           98.96       44.0        55.21       
C           101.61      51.07       55.27       
C           101.92      49.93       57.52       
H           102.54      48.17       54.75       
H           97.77       46.94       55.47       
H           99.77       52.43       57.63       
H           96.62       48.73       56.66       
H           100.27      42.63       52.48       
H           103.63      46.3        53.42       
H           97.19       45.35       53.66       
H           98.11       45.93       52.46       
H           97.72259    44.21363    52.45981    
H           98.01       44.32       55.61       
H           98.81       43.0        54.93       
H           99.6443     44.05644    56.05655    
H           102.94      50.14       57.33       
H           101.54      50.59       58.32       
H           101.87033   48.94365    57.98124    
H           102.61      50.88       54.97       
H           101.79      52.03       55.73       
H           100.93597   51.28766    54.4415     
H           102.35      41.31       51.13       
H           97.69       53.76       58.81       
S           104.76      44.01       51.57       
C           102.87      42.21       51.36       
C           104.19      42.41       51.06       
C           93.43       55.41       61.21       
C           92.79       54.63       60.11       
C           94.75       55.18       61.41       
N           91.6        54.6        59.69       
N           92.8        53.25       58.36       
O           91.55       53.75       58.66       
H           96.54       54.16       60.8        
H           95.36       55.59       62.22       
C           95.48       54.29       60.62       
C           93.59       53.77       59.26       
C           95.03       53.56       59.53       
C           89.23       63.44       74.86       
C           90.31       63.77       74.12       
S           88.06       62.43       74.03       
C           91.14       61.59       68.47       
C           90.02       61.07       69.21       
C           89.24       60.07       68.6        
C           89.5        59.63       67.28       
C           90.7        60.06       66.62       
C           91.45       61.06       67.2        
C           88.86       58.47       66.46       
C           89.84       58.33       65.27       
C           90.96       59.17       65.46       
C           91.99       62.44       69.44       
C           91.09       62.48       70.65       
C           89.95       61.73       70.44       
C           89.87       57.33       64.26       
C           91.08       57.08       63.57       
C           92.07       58.02       63.75       
C           92.1        59.05       64.67       
C           91.21       63.12       71.82       
C           90.21       63.16       72.81       
C           89.02       62.51       72.53       
C           88.93       61.74       71.37       
C           87.44       58.89       66.02       
C           88.75       57.12       67.34       
C           92.3        63.83       68.91       
C           93.3        61.68       69.99       
H           92.35       61.33       66.72       
H           88.45       59.66       69.18       
H           92.17       63.66       71.89       
H           88.06       61.15       71.18       
H           88.98       56.69       63.96       
H           92.99       59.71       64.79       
H           86.75       59.09       66.83       
H           87.0        58.03       65.6        
H           87.47561    59.70188    65.29358    
H           88.31       57.39       68.35       
H           88.07       56.42       66.85       
H           89.71646    56.61913    67.39644    
H           93.8        62.24       70.82       
H           92.92       60.69       70.4        
H           93.97735    61.35915    69.19857    
H           93.01       64.32       69.51       
H           92.74       63.76       67.95       
H           91.47398    64.53701    68.833      
H           90.72       55.38       62.18       
H           91.2        64.34       74.52       
S           93.5        57.56       62.82       
C           91.42       56.13       62.55       
C           92.7        56.15       62.12       
C           88.71       63.33       79.19       
C           89.95       63.81       78.69       
C           87.77       63.17       78.27       
N           91.15       63.97       79.25       
N           91.42       64.19       76.99       
O           91.99       64.12       78.21       
H           87.16       62.85       76.3        
H           86.87       62.73       78.59       
C           87.98       63.19       76.88       
C           90.18       63.91       77.26       
C           89.18       63.55       76.3        
C           86.51       55.37       93.75       
C           85.75       55.05       92.67       
S           87.96       56.29       93.29       
C           86.57       58.17       87.39       
C           87.6        58.34       88.32       
C           88.72       59.13       88.09       
C           88.74       59.76       86.83       
C           87.66       59.67       85.88       
C           86.56       58.9        86.25       
C           89.85       60.73       86.3        
C           89.23       61.16       84.95       
C           87.94       60.51       84.72       
C           85.48       57.18       87.87       
C           85.95       56.9        89.32       
C           87.2        57.59       89.52       
C           89.72       62.02       84.05       
C           89.0        62.19       82.82       
C           87.67       61.61       82.64       
C           87.16       60.71       83.55       
C           85.41       56.04       90.27       
C           86.07       55.84       91.5        
C           87.3        56.55       91.66       
C           87.85       57.39       90.75       
C           91.16       60.0        86.0        
C           90.0        61.92       87.28       
C           85.42       55.99       86.83       
C           84.14       57.94       87.84       
H           85.67       58.77       85.66       
H           89.6        59.12       88.71       
H           84.47       55.62       90.19       
H           88.86       57.83       90.95       
H           90.7        62.41       84.11       
H           86.26       60.21       83.33       
H           91.37       59.51       87.03       
H           91.31       59.24       85.19       
H           92.01758    60.66135    85.87645    
H           90.86       61.7        87.92       
H           90.33       62.69       86.65       
H           89.07901    62.2468     87.76278    
H           83.98       58.39       86.91       
H           83.27       57.23       87.88       
H           84.06628    58.64774    88.66569    
H           85.13       56.43       85.89       
H           86.43       55.57       86.71       
H           84.6951     55.19986    87.02572    
H           90.43       63.31       81.53       
H           84.75       54.58       92.8        
S           87.02       62.09       81.05       
C           89.42       62.84       81.66       
C           88.53       62.9        80.61       
C           85.69       55.14       98.1        
C           85.03       54.21       97.18       
C           86.77       55.77       97.54       
N           84.04       53.37       97.39       
N           84.54       53.36       95.26       
O           83.74       52.86       96.21       
H           87.93       56.42       95.85       
H           87.41       56.27       98.2        
C           87.08       55.81       96.14       
C           85.35       54.23       95.79       
C           86.38       55.09       95.21       
C           82.61       55.92       114.43      
C           82.29       54.88       113.66      
S           83.39       57.11       113.46      
C           83.23       54.65       107.62      
C           83.56       55.85       108.25      
C           84.18       56.89       107.57      
C           84.36       56.67       106.22      
C           84.09       55.51       105.51      
C           83.54       54.38       106.27      
C           85.25       57.61       105.39      
C           85.19       56.88       104.01      
C           84.59       55.62       104.21      
C           82.4        53.73       108.6       
C           82.72       54.41       109.91      
C           83.33       55.7        109.74      
C           85.47       57.27       102.73      
C           85.39       56.32       101.67      
C           84.82       55.04       101.97      
C           84.49       54.67       103.28      
C           82.41       54.0        111.21      
C           82.65       54.98       112.29      
C           83.24       56.21       111.99      
C           83.61       56.6        110.73      
C           86.65       57.72       106.01      
C           84.66       59.09       105.21      
C           82.93       52.31       108.5       
C           80.9        53.77       108.25      
H           83.29       53.42       105.9       
H           84.49       57.75       108.13      
H           81.94       53.0        111.48      
H           84.03       57.55       110.49      
H           85.93       58.23       102.56      
H           84.06       53.68       103.42      
H           86.73       58.38       106.86      
H           86.87       56.68       106.41      
H           87.42142    57.99445    105.2905    
H           84.77       59.59       106.14      
H           85.28       59.63       104.49      
H           83.62454    59.14713    104.87437   
H           80.62       53.14       107.44      
H           80.38       53.39       109.09      
H           80.59631    54.77995    107.97456   
H           82.88       52.11       107.38      
H           82.31       51.69       109.17      
H           83.97096    52.16542    108.78915   
H           86.11       57.4        99.9        
H           81.65       54.11       114.04      
S           84.8        54.03       100.49      
C           85.66       56.49       100.23      
C           85.36       55.38       99.47       
C           81.33       56.42       118.75      
C           82.04       57.47       118.07      
C           81.21       55.3        117.95      
N           82.38       58.66       118.57      
N           83.13       58.45       116.5       
O           83.06       59.2        117.59      
H           81.5        54.27       116.12      
H           80.58       54.46       118.23      
C           81.64       55.19       116.62      
C           82.55       57.33       116.71      
C           82.24       56.17       115.87      
C           79.86       53.27       134.66      
C           79.64       52.38       133.73      
S           80.19       54.88       134.03      
C           79.0        53.95       127.85      
C           79.49       54.98       128.76      
C           79.78       56.28       128.28      
C           79.7        56.51       126.9       
C           79.33       55.46       126.02      
C           79.02       54.21       126.47      
C           80.14       57.79       126.2       
C           79.97       57.28       124.73      
C           79.5        55.95       124.68      
C           78.63       52.67       128.6       
C           79.14       53.05       130.01      
C           79.64       54.35       130.04      
C           80.4        57.91       123.57      
C           80.45       57.16       122.36      
C           79.98       55.79       122.37      
C           79.54       55.21       123.49      
C           79.15       52.32       131.14      
C           79.52       52.96       132.38      
C           79.85       54.35       132.41      
C           79.97       55.01       131.21      
C           81.7        58.0        126.53      
C           79.23       59.06       126.48      
C           79.36       51.41       128.14      
C           77.09       52.49       128.78      
H           78.75       53.43       125.72      
H           80.12       57.08       128.97      
H           78.99       51.25       131.14      
H           80.12       56.08       131.17      
H           80.54       58.96       123.57      
H           79.33       54.13       123.46      
H           81.92       57.96       127.61      
H           82.08       57.07       126.08      
H           82.1968     58.80304    125.98556   
H           79.54       59.57       127.38      
H           79.43       59.82       125.66      
H           78.18566    58.74815    126.4655    
H           77.04       51.5        129.15      
H           76.71       53.19       129.54      
H           76.56887    52.60268    127.8293    
H           79.05       51.31       127.1       
H           78.99       50.51       128.61      
H           80.44519    51.51128    128.15447   
H           81.42       58.45       120.83      
H           79.5        51.33       133.89      
S           80.15       55.03       120.8       
C           81.01       57.48       121.06      
C           80.96       56.47       120.17      
C           79.95       52.49       139.0       
C           80.18       53.8        138.53      
C           79.66       51.56       138.05      
N           80.5        54.88       139.16      
N           80.79       55.33       136.98      
O           80.94       55.8        138.27      
H           79.44       50.98       136.04      
H           79.41       50.5        138.34      
C           79.7        51.83       136.67      
C           80.35       54.03       137.11      
C           80.06       52.99       136.05      
C           76.04       51.87       154.97      
C           76.51       52.95       154.33      
S           75.43       50.7        153.79      
C           77.78       53.04       148.34      
C           77.04       51.95       148.85      
C           76.73       50.92       147.98      
C           77.26       50.89       146.69      
C           78.13       51.95       146.29      
C           78.41       52.99       147.16      
C           77.27       49.85       145.52      
C           78.06       50.55       144.42      
C           78.69       51.74       144.94      
C           77.94       54.13       149.47      
C           77.09       53.45       150.6       
C           76.61       52.18       150.24      
C           78.29       50.16       143.07      
C           79.12       50.98       142.27      
C           79.66       52.2        142.82      
C           79.47       52.59       144.15      
C           77.1        53.83       151.93      
C           76.61       52.91       152.88      
C           76.0        51.7        152.42      
C           76.0        51.28       151.14      
C           75.86       49.5        145.06      
C           78.18       48.61       145.79      
C           77.34       55.45       149.05      
C           79.37       54.18       149.99      
H           79.07       53.76       146.79      
H           76.11       50.19       148.38      
H           77.62       54.69       152.21      
H           75.73       50.26       150.89      
H           77.87       49.24       142.69      
H           79.85       53.47       144.53      
H           75.29       48.98       145.82      
H           76.01       48.81       144.2       
H           75.34997    50.3713     144.64914   
H           79.25       48.78       145.83      
H           78.07       47.96       144.95      
H           77.86304    48.01293    146.64507   
H           79.3        54.98       150.69      
H           79.68       53.26       150.48      
H           80.15467    54.51835    149.31331   
H           77.72       55.67       148.08      
H           77.56       56.24       149.73      
H           76.25462    55.42899    148.95197   
H           79.02       50.02       140.38      
H           76.91       53.72       154.95      
S           80.4        53.21       141.61      
C           79.35       50.87       140.87      
C           79.88       52.03       140.43      
C           74.99       51.17       159.26      
C           75.69       52.29       158.88      
C           74.88       50.21       158.29      
N           75.99       53.3        159.63      
N           76.65       53.75       157.53      
O           76.45       54.26       158.72      
H           74.96       49.71       156.2       
H           74.3        49.24       158.3       
C           75.21       50.52       156.89      
C           76.13       52.55       157.53      
C           75.82       51.64       156.43      
C           65.07       50.91       172.57      
C           64.76       50.2        171.46      
S           66.53       51.82       172.43      
C           68.59       49.83       166.69      
C           69.12       50.46       167.82      
C           70.48       50.88       167.87      
C           71.26       50.74       166.72      
C           70.65       50.23       165.57      
C           69.29       49.73       165.53      
C           72.74       50.9        166.56      
C           72.83       50.81       165.05      
C           71.59       50.34       164.47      
C           67.08       49.63       166.91      
C           66.9        49.96       168.43      
C           68.08       50.62       168.84      
C           73.98       51.12       164.25      
C           73.81       50.95       162.83      
C           72.64       50.39       162.26      
C           71.55       49.98       163.08      
C           65.85       49.74       169.19      
C           65.8        50.29       170.46      
C           66.9        51.1        170.87      
C           68.08       51.29       170.06      
C           73.34       49.67       167.36      
C           73.3        52.3        166.99      
C           66.65       48.16       166.68      
C           66.16       50.49       166.03      
H           68.77       49.3        164.59      
H           70.83       51.5        168.72      
H           65.01       49.16       168.81      
H           68.92       51.96       170.3       
H           74.9        51.52       164.62      
H           70.57       49.77       162.66      
H           73.34       49.72       168.38      
H           72.76       48.8        167.3       
H           74.324      49.36777    167.00154   
H           73.17       52.49       168.08      
H           74.36       52.31       166.86      
H           72.87558    53.16347    166.47777   
H           66.22       50.14       165.0       
H           65.1        50.27       166.3       
H           66.44175    51.54285    166.01517   
H           66.66       47.99       165.54      
H           65.6        47.93       167.02      
H           67.3533     47.4989     167.18638   
H           75.77       51.74       161.96      
H           63.91       49.61       171.23      
S           72.67       50.33       160.52      
C           74.74       51.33       161.79      
C           74.32       50.99       160.54      
C           63.17       50.6        176.51      
C           62.49       50.22       175.28      
C           64.37       51.24       176.3       
N           61.49       49.38       175.2       
N           62.3        49.78       173.12      
O           61.28       49.18       173.86      
H           66.02       51.7        175.02      
H           64.86       51.51       177.23      
C           64.96       51.38       175.03      
C           63.09       50.43       173.99      
C           64.4        50.96       173.8       
H           130.54      -1.91       14.7        
H           62.66       50.72       177.51      
