612

C           160.37      27.54       24.05       
C           161.15      26.57       23.43       
S           160.85      29.05       23.42       
C           165.91      27.75       19.73       
C           165.27      28.93       20.19       
C           165.78      30.19       19.97       
C           167.03      30.32       19.47       
C           167.69      29.2        18.89       
C           167.13      27.92       19.02       
C           167.81      31.6        19.04       
C           169.11      31.03       18.48       
C           169.03      29.61       18.44       
C           165.22      26.5        20.25       
C           164.23      27.07       21.18       
C           164.19      28.54       21.11       
C           170.32      31.64       18.2        
C           171.37      30.84       17.63       
C           171.22      29.44       17.53       
C           170.08      28.83       17.94       
C           163.4       26.43       22.03       
C           162.27      27.06       22.69       
C           162.25      28.49       22.55       
C           163.33      29.21       21.94       
C           168.16      32.29       20.38       
C           167.12      32.52       18.01       
C           166.21      25.62       21.06       
C           164.63      25.7        19.12       
H           167.74      27.1        18.61       
H           165.32      31.03       20.42       
H           163.61      25.38       22.1        
H           163.34      30.29       21.9        
H           170.53      32.72       18.34       
H           169.97      27.8        17.82       
H           167.22      32.81       20.69       
H           168.98      33.02       20.27       
H           168.4488    31.55744    21.13369    
H           166.9       31.89       17.16       
H           167.87      33.22       17.63       
H           166.22522   33.04429    18.34554    
H           165.46      25.18       18.6        
H           163.88      25.05       19.62       
H           164.30814   26.32941    18.29033    
H           166.91      25.2        20.37       
H           165.78      24.7        21.43       
H           166.76347   26.16646    21.82364    
H           172.87      32.33       16.96       
H           160.87      25.53       23.55       
S           172.64      28.72       16.8        
C           172.65      31.25       17.13       
C           173.42      30.25       16.62       
C           156.56      27.62       26.29       
C           157.13      26.38       25.96       
C           157.34      28.73       26.03       
N           156.73      25.13       26.03       
N           158.69      25.11       24.91       
O           157.61      24.34       25.46       
H           159.18      29.53       25.38       
H           156.91      29.68       26.28       
C           158.55      28.66       25.37       
C           158.33      26.33       25.18       
C           159.11      27.51       24.85       
C           141.22      29.93       32.12       
C           141.6       30.4        30.89       
S           142.53      29.07       32.85       
C           147.12      29.31       28.51       
C           146.86      28.67       29.72       
C           147.77      27.96       30.47       
C           149.09      27.86       29.99       
C           149.41      28.63       28.87       
C           148.48      29.4        28.18       
C           150.23      27.03       30.49       
C           151.32      27.39       29.46       
C           150.8       28.33       28.54       
C           145.86      29.99       27.92       
C           144.96      29.88       29.14       
C           145.56      29.12       30.2        
C           152.58      26.86       29.26       
C           153.46      27.36       28.28       
C           152.92      28.39       27.44       
C           151.59      28.85       27.6        
C           143.67      30.42       29.27       
C           142.94      30.08       30.47       
C           143.58      29.3        31.48       
C           144.91      28.8        31.44       
C           149.8       25.5        30.51       
C           150.64      27.52       31.9        
C           145.25      29.31       26.7        
C           146.17      31.51       27.79       
H           148.68      29.88       27.31       
H           147.49      27.39       31.36       
H           143.2       31.01       28.45       
H           145.33      28.12       32.16       
H           152.96      26.07       29.92       
H           151.31      29.76       27.05       
H           148.94      25.43       31.21       
H           150.68      25.0        30.93       
H           149.59049   25.0015     29.56358    
H           150.85      28.57       31.86       
H           151.69      27.16       32.05       
H           150.01532   27.24161    32.74875    
H           145.32      32.14       27.71       
H           146.68      31.82       28.65       
H           146.82405   31.67699    26.93417    
H           144.92      30.13       26.04       
H           146.07      28.76       26.18       
H           144.4406    28.60804    26.90056    
H           155.41      26.18       28.42       
H           140.92      30.97       30.23       
S           154.18      28.98       26.4        
C           154.82      27.02       27.98       
C           155.3       27.82       27.01       
C           137.6       30.47       34.65       
C           137.45      30.08       33.23       
C           138.92      30.63       35.0        
N           136.34      29.78       32.51       
N           138.2       29.44       31.17       
O           136.85      29.34       31.34       
H           141.05      30.59       34.54       
H           139.14      31.01       35.97       
C           140.03      30.39       34.12       
C           138.61      29.9        32.32       
C           139.96      29.92       32.84       
C           124.15      34.62       42.96       
C           124.04      33.45       42.23       
S           125.8       35.15       43.16       
C           128.84      31.29       39.29       
C           129.12      32.2        40.33       
C           130.36      32.69       40.68       
C           131.41      32.14       40.03       
C           131.23      31.23       38.93       
C           129.91      30.88       38.45       
C           132.86      32.27       40.34       
C           133.55      31.54       39.17       
C           132.55      30.91       38.38       
C           127.4       30.71       39.47       
C           126.87      31.75       40.44       
C           127.86      32.63       40.88       
C           134.94      31.53       38.86       
C           135.28      31.1        37.57       
C           134.31      30.51       36.76       
C           132.98      30.35       37.22       
C           125.56      32.07       40.74       
C           125.32      33.09       41.69       
C           126.3       33.85       42.18       
C           127.64      33.63       41.81       
C           133.24      31.64       41.69       
C           133.39      33.74       40.37       
C           127.31      29.32       40.17       
C           126.6       30.62       38.15       
H           129.78      30.18       37.59       
H           130.55      33.41       41.48       
H           124.67      31.59       40.34       
H           128.45      34.16       42.24       
H           135.57      32.03       39.5        
H           132.27      29.94       36.48       
H           134.28      31.61       41.85       
H           133.0       32.27       42.49       
H           132.82926   30.6337     41.77215    
H           132.67      34.11       41.09       
H           134.36      33.7        40.82       
H           133.27322   34.2363     39.40659    
H           127.0       29.76       37.6        
H           125.51      30.47       38.32       
H           126.64335   31.55201    37.58646    
H           126.34      29.03       40.61       
H           127.33      28.55       39.42       
H           128.11653   29.1147     40.87388    
H           137.41      31.36       37.41       
H           123.1       32.82       42.11       
S           134.91      30.09       35.21       
C           136.53      30.98       36.94       
C           136.51      30.52       35.68       
C           121.45      37.22       45.33       
C           121.16      35.87       45.07       
C           122.59      37.64       44.64       
N           120.04      35.27       45.37       
N           121.29      33.88       44.2        
O           120.17      33.94       44.91       
H           124.41      37.19       43.51       
H           123.07      38.59       44.84       
C           123.41      36.75       43.87       
C           121.95      35.0        44.26       
C           123.16      35.41       43.69       
C           110.22      47.7        51.2        
C           111.29      48.2        50.52       
S           110.27      46.0        51.32       
C           115.84      44.68       48.57       
C           114.83      44.07       49.33       
C           114.81      42.68       49.59       
C           115.81      41.87       49.08       
C           116.76      42.47       48.23       
C           116.86      43.87       48.04       
C           116.02      40.46       49.48       
C           117.12      40.14       48.47       
C           117.62      41.3        47.73       
C           115.42      46.13       48.28       
C           114.17      46.31       49.1        
C           113.86      45.07       49.69       
C           117.71      38.95       48.22       
C           118.84      38.9        47.36       
C           119.34      40.1        46.74       
C           118.73      41.28       46.93       
C           113.41      47.41       49.32       
C           112.24      47.23       50.06       
C           111.81      45.93       50.51       
C           112.57      44.77       50.26       
C           114.8       39.51       49.19       
C           116.5       40.3        50.96       
C           115.01      46.5        46.79       
C           116.37      47.09       48.92       
H           117.75      44.43       47.51       
H           113.98      42.26       50.14       
H           113.64      48.35       48.87       
H           112.19      43.79       50.5        
H           117.43      38.06       48.8        
H           119.07      42.25       46.47       
H           115.15      38.5        49.52       
H           114.07      39.77       49.93       
H           114.42116   39.57557    48.17006    
H           115.61      40.4        51.61       
H           116.9       39.33       51.08       
H           117.39083   40.88461    51.18967    
H           116.05      48.08       48.96       
H           116.54      46.69       49.84       
H           117.34313   47.19577    48.44049    
H           115.75      46.29       46.05       
H           114.72      47.53       46.7        
H           114.18822   45.83274    46.53012    
H           119.56      36.78       47.45       
H           111.48      49.29       50.33       
S           120.77      39.76       45.81       
C           119.68      37.77       47.02       
C           120.68      38.08       46.16       
C           108.03      49.59       54.57       
C           107.31      48.89       53.51       
C           109.35      49.6        54.41       
N           106.08      48.51       53.46       
N           107.13      47.67       51.64       
O           105.98      47.7        52.35       
H           111.08      49.13       53.31       
H           109.91      50.03       55.18       
C           110.04      49.06       53.25       
C           107.98      48.28       52.39       
C           109.43      48.41       52.21       
C           103.7       51.48       70.33       
C           104.96      51.28       69.86       
S           102.53      51.23       69.1        
C           106.27      51.04       64.04       
C           104.9       50.82       64.31       
C           103.95      50.56       63.32       
C           104.41      50.52       61.96       
C           105.77      50.82       61.73       
C           106.72      51.1        62.75       
C           103.63      50.13       60.69       
C           104.79      50.31       59.73       
C           106.03      50.7        60.34       
C           107.16      51.38       65.22       
C           106.07      51.19       66.28       
C           104.78      50.97       65.75       
C           104.74      50.06       58.35       
C           105.93      50.14       57.61       
C           107.1       50.62       58.21       
C           107.16      50.91       59.57       
C           106.12      51.18       67.67       
C           104.99      51.2        68.43       
C           103.7       51.07       67.84       
C           103.6       50.94       66.52       
C           102.39      51.02       60.47       
C           103.21      48.63       60.86       
C           107.81      52.75       65.13       
C           108.31      50.32       65.4        
H           107.82      51.31       62.62       
H           102.89      50.44       63.53       
H           107.12      51.18       68.14       
H           102.62      50.93       66.01       
H           103.87      49.58       57.79       
H           108.11      51.29       59.98       
H           101.71      50.95       61.3        
H           101.88      50.65       59.55       
H           102.63485   52.07592    60.35523    
H           102.37      48.53       61.57       
H           102.81      48.37       59.85       
H           104.04746   47.99161    61.14144    
H           109.06      50.56       64.71       
H           108.5       50.48       66.45       
H           107.97718   49.28614    65.30794    
H           108.75      52.62       64.56       
H           107.1       53.41       64.57       
H           108.10392   53.17296    66.09063    
H           105.38      49.22       55.64       
H           105.84      51.42       70.45       
S           108.46      50.55       57.16       
C           106.14      49.75       56.26       
C           107.42      49.99       55.8        
C           102.37      52.69       74.33       
C           103.8       52.63       74.01       
C           101.58      52.3        73.35       
N           104.87      52.89       74.76       
N           105.52      52.19       72.71       
O           105.92      52.69       73.91       
H           101.2       51.7        71.32       
H           100.49      52.27       73.52       
C           101.97      51.89       72.05       
C           104.18      52.25       72.67       
C           103.31      51.83       71.64       
C           100.1       59.69       88.95       
C           101.32      59.2        88.53       
S           98.84       59.23       87.85       
C           101.85      55.83       83.47       
C           100.55      56.2        83.8        
C           99.46       55.93       82.95       
C           99.68       55.37       81.71       
C           100.95      55.03       81.39       
C           102.01      55.16       82.25       
C           98.72       55.23       80.48       
C           99.72       54.76       79.47       
C           100.98      54.57       80.03       
C           102.91      56.23       84.57       
C           102.0       57.05       85.49       
C           100.63      57.0        85.01       
C           99.49       54.34       78.14       
C           100.58      53.77       77.41       
C           101.82      53.53       78.1        
C           102.03      53.99       79.4        
C           102.24      57.63       86.7        
C           101.27      58.45       87.36       
C           99.95       58.36       86.87       
C           99.59       57.57       85.77       
C           98.26       56.65       80.04       
C           97.54       54.24       80.75       
C           104.1       57.08       83.99       
C           103.43      54.98       85.4        
H           102.98      54.72       82.03       
H           98.49       56.25       83.25       
H           103.32      57.96       86.9        
H           98.56       57.37       85.53       
H           98.55       54.51       77.6        
H           102.91      53.82       79.94       
H           97.43       56.7        79.4        
H           97.87       57.08       80.98       
H           99.09824    57.31775    79.8411     
H           96.92       54.69       81.54       
H           96.96       54.04       79.8        
H           97.86798    53.25607    81.08527    
H           104.18      55.37       86.09       
H           102.59      54.52       85.86       
H           103.90662   54.19749    84.80956    
H           104.97      57.31       84.61       
H           104.55      56.52       83.15       
H           103.78317   58.0665     83.65157    
H           99.79       53.35       75.39       
H           102.24      59.4        89.05       
S           102.99      52.92       77.0        
C           100.62      53.36       76.05       
C           101.89      53.06       75.68       
C           98.91       60.87       92.98       
C           98.36       61.52       91.82       
C           100.01      60.16       92.73       
N           97.33       62.42       91.73       
N           98.02       61.76       89.64       
O           97.14       62.52       90.33       
H           101.2       59.09       91.26       
H           100.58      59.58       93.54       
C           100.47      59.85       91.38       
C           98.83       61.24       90.48       
C           99.88       60.32       90.24       
C           94.2        61.58       108.86      
C           95.39       61.09       108.45      
S           93.24       62.19       107.44      
C           96.97       60.34       102.63      
C           95.8        61.02       102.87      
C           94.9        61.43       101.85      
C           95.35       61.32       100.5       
C           96.57       60.61       100.25      
C           97.35       60.12       101.27      
C           94.84       62.08       99.3        
C           95.8        61.51       98.23       
C           96.88       60.77       98.83       
C           97.55       59.84       103.94      
C           96.65       60.56       104.96      
C           95.54       61.15       104.31      
C           95.83       61.7        96.89       
C           96.95       61.24       96.21       
C           98.04       60.63       96.87       
C           98.01       60.34       98.22       
C           96.6        60.43       106.36      
C           95.49       61.03       107.01      
C           94.47       61.67       106.3       
C           94.5        61.77       104.98      
C           94.91       63.58       99.48       
C           93.35       61.62       99.03       
C           99.05       60.24       104.04      
C           97.29       58.36       104.2       
H           98.2        59.52       101.13      
H           94.07       62.08       102.15      
H           97.36       59.9        106.96      
H           93.69       62.24       104.41      
H           95.02       62.25       96.4        
H           98.87       60.0        98.79       
H           94.34       64.14       98.7        
H           94.4        63.86       100.44      
H           95.9065     64.01014    99.58037    
H           92.73       62.03       99.82       
H           93.01       62.14       98.12       
H           93.25712    60.53406    99.01571    
H           97.76       58.2        105.19      
H           96.22       58.19       104.35      
H           97.69266    57.72725    103.40906   
H           99.68       59.6        103.31      
H           99.3        60.15       105.02      
H           99.23104    61.28277    103.77931   
H           96.44       61.68       94.12       
H           96.05       60.52       109.11      
S           99.36       60.41       95.71       
C           97.18       61.37       94.79       
C           98.37       60.88       94.33       
C           92.82       62.46       112.93      
C           91.99       61.97       111.91      
C           94.15       62.59       112.52      
N           90.76       61.66       111.95      
N           91.45       61.25       109.86      
O           90.4        61.33       110.63      
H           95.64       62.41       110.96      
H           94.9        62.89       113.2       
C           94.57       62.29       111.2       
C           92.4        61.74       110.58      
C           93.76       61.92       110.19      
C           87.74       67.56       127.75      
C           89.07       67.59       127.43      
S           86.74       67.16       126.36      
C           91.09       66.38       121.78      
C           89.69       66.42       121.9       
C           88.8        66.06       120.95      
C           89.34       65.51       119.77      
C           90.71       65.5        119.61      
C           91.57       66.13       120.54      
C           88.59       65.0        118.54      
C           89.77       64.54       117.76      
C           90.97       64.93       118.3       
C           91.86       66.63       123.06      
C           90.66       67.01       123.99      
C           89.44       66.8        123.34      
C           89.62       63.93       116.5       
C           90.83       63.66       115.87      
C           92.06       64.07       116.42      
C           92.18       64.62       117.72      
C           90.55       67.19       125.38      
C           89.34       67.32       126.03      
C           88.14       67.21       125.29      
C           88.21       67.0        123.98      
C           87.69       66.15       117.97      
C           87.76       63.76       118.89      
C           92.95       67.72       123.0       
C           92.46       65.3        123.5       
H           92.6        66.26       120.37      
H           87.73       66.26       121.07      
H           91.5        67.27       125.92      
H           87.27       66.86       123.42      
H           88.64       63.56       116.11      
H           93.1        64.9        118.2       
H           86.8        66.22       118.65      
H           88.21       67.14       118.06      
H           87.31647    65.99915    116.95717   
H           86.88       64.16       119.38      
H           87.3        63.27       118.01      
H           88.22259    62.99139    119.50916   
H           93.63       65.46       123.65      
H           92.0        65.08       124.5       
H           92.33512    64.42587    122.86093   
H           93.78       67.38       122.3       
H           93.4        67.87       123.96      
H           92.51982    68.68243    122.72294   
H           90.17       62.59       114.0       
H           89.72       67.77       128.27      
S           93.39       63.58       115.43      
C           91.0        63.02       114.6       
C           92.32       63.02       114.19      
C           85.59       67.75       131.74      
C           87.04       67.8        131.63      
C           85.05       67.49       130.52      
N           87.87       67.87       132.62      
N           89.06       67.87       130.63      
O           89.08       67.97       132.04      
H           85.17       67.17       128.49      
H           83.97       67.44       130.4       
C           85.79       67.4        129.27      
C           87.73       67.74       130.38      
C           87.15       67.59       129.09      
C           74.57       70.58       143.79      
C           74.67       71.11       142.53      
S           76.09       69.84       144.23      
C           78.92       70.15       138.51      
C           79.26       69.63       139.81      
C           80.46       68.94       139.94      
C           81.34       68.78       138.83      
C           80.91       69.26       137.55      
C           79.69       69.86       137.36      
C           82.81       68.25       138.71      
C           82.97       68.26       137.16      
C           81.88       68.9        136.56      
C           77.72       71.07       138.58      
C           77.27       70.71       139.99      
C           78.27       69.94       140.74      
C           84.11       67.85       136.45      
C           84.09       68.05       135.02      
C           82.9        68.62       134.47      
C           81.77       69.07       135.2       
C           76.12       71.13       140.59      
C           75.87       70.83       141.91      
C           76.91       70.23       142.63      
C           78.11       69.73       142.09      
C           82.98       66.84       139.3       
C           83.81       69.31       139.32      
C           76.62       70.64       137.6       
C           78.1        72.53       138.31      
H           79.34       70.13       136.43      
H           80.77       68.51       140.88      
H           75.48       71.81       140.0       
H           78.8        69.13       142.69      
H           84.96       67.36       136.94      
H           80.99       69.59       134.71      
H           82.66       66.74       140.33      
H           84.07       66.55       139.28      
H           82.44399    66.08244    138.72826   
H           83.68       70.25       138.87      
H           84.86       68.99       139.26      
H           83.78055    69.43517    140.40239   
H           78.48       72.77       137.33      
H           77.19       73.11       138.42      
H           78.76297    72.95317    139.06465   
H           76.86       70.95       136.58      
H           75.74       71.29       137.74      
H           76.41839    69.56937    137.63476   
H           86.13       67.34       134.44      
H           73.8        71.62       142.09      
S           83.11       68.65       132.77      
C           85.12       67.83       134.13      
C           84.71       67.98       132.88      
C           71.0        70.71       146.3       
C           71.42       71.83       145.55      
C           71.86       69.68       146.25      
N           70.8        72.99       145.47      
N           72.67       73.08       144.24      
O           71.56       73.73       144.68      
H           73.7        68.67       145.49      
H           71.58       68.74       146.69      
C           73.1        69.65       145.54      
C           72.61       71.91       144.82      
C           73.52       70.74       144.76      
C           57.76       76.07       154.34      
C           58.86       75.53       154.9       
S           57.79       75.82       152.63      
C           63.34       72.64       152.25      
C           62.26       73.03       151.42      
C           62.3        72.96       150.03      
C           63.47       72.49       149.37      
C           64.57       72.26       150.2       
C           64.55       72.32       151.62      
C           63.85       72.74       147.91      
C           65.28       72.18       148.03      
C           65.66       71.76       149.39      
C           62.88       72.83       153.65      
C           61.65       73.6        153.54      
C           61.23       73.66       152.17      
C           66.14       71.94       147.02      
C           67.38       71.34       147.19      
C           67.7        70.95       148.51      
C           66.9        71.13       149.63      
C           60.85       74.06       154.53      
C           59.69       74.77       154.08      
C           59.35       74.91       152.72      
C           60.09       74.27       151.72      
C           63.96       74.2        147.34      
C           63.07       71.8        146.92      
C           63.9        73.62       154.48      
C           62.52       71.48       154.37      
H           65.4        71.95       152.2       
H           61.42       73.15       149.47      
H           61.15       74.07       155.6       
H           59.86       74.48       150.7       
H           65.75       72.26       146.03      
H           67.23       70.93       150.63      
H           63.89       74.1        146.23      
H           63.08       74.67       147.7       
H           64.85707    74.73535    147.65108   
H           62.08       72.25       146.89      
H           63.37       71.93       145.85      
H           63.042      70.75689    147.23503   
H           62.45       71.5        155.49      
H           61.51       71.26       154.11      
H           63.12472    70.62628    154.06408   
H           64.69       73.02       154.83      
H           63.39       73.89       155.4       
H           64.32978    74.47956    153.96567   
H           68.49       71.47       145.24      
H           59.02       75.56       155.95      
S           69.37       70.36       148.59      
C           68.51       71.12       146.29      
C           69.64       70.63       146.84      
C           54.46       78.54       156.1       
C           55.55       78.04       156.9       
C           54.65       78.16       154.84      
N           55.85       78.27       158.15      
N           57.5        76.98       157.32      
O           56.9        77.43       158.42      
H           55.73       77.26       153.09      
H           54.02       78.63       154.07      
C           55.75       77.44       154.22      
C           56.61       77.2        156.37      
C           56.74       76.88       155.0       
H           174.2       30.45       15.86       
H           53.88       79.42       156.32      
