612

C           151.34      4.33        43.6        
C           152.29      4.18        44.57       
S           151.75      3.47        42.16       
C           157.54      1.2         43.52       
C           156.64      1.24        42.46       
C           156.83      0.59        41.19       
C           158.09      0.0         41.02       
C           159.05      0.07        42.07       
C           158.85      0.62        43.29       
C           158.58      -0.89       39.88       
C           160.07      -0.87       40.21       
C           160.27      -0.54       41.55       
C           156.99      2.05        44.69       
C           155.58      2.43        44.2        
C           155.46      1.98        42.89       
C           161.11      -1.42       39.5        
C           162.37      -1.63       40.07       
C           162.54      -1.25       41.38       
C           161.46      -0.8        42.15       
C           154.58      3.16        44.85       
C           153.4       3.42        44.13       
C           153.27      3.0         42.81       
C           154.31      2.28        42.18       
C           158.17      -0.24       38.49       
C           157.89      -2.34       39.93       
C           157.9       3.29        44.96       
C           156.76      1.26        46.02       
H           159.57      0.6         44.09       
H           156.06      0.63        40.4        
H           154.65      3.58        45.89       
H           154.27      2.03        41.06       
H           160.94      -1.78       38.46       
H           161.62      -0.7        43.25       
H           157.08      -0.24       38.29       
H           158.61      -0.88       37.74       
H           158.47723   0.796       38.3471     
H           158.41      -2.92       40.61       
H           158.16      -2.78       38.97       
H           156.82256   -2.40977    40.1393     
H           157.14      1.64        46.92       
H           155.69      1.18        46.16       
H           157.08049   0.21841     45.99815    
H           158.94      2.98        45.17       
H           157.58      3.88        45.83       
H           157.79465   4.0064      44.14527    
H           163.65      -2.04       38.35       
H           152.15      4.45        45.63       
S           164.16      -1.73       41.91       
C           163.57      -1.97       39.44       
C           164.49      -2.31       40.33       
C           147.77      6.65        43.54       
C           147.94      5.66        42.58       
C           148.78      6.81        44.48       
N           147.21      5.44        41.51       
N           148.93      3.9         41.65       
O           147.78      4.26        41.04       
H           150.76      6.41        45.05       
H           148.91      7.7         45.14       
C           149.94      6.03        44.47       
C           149.06      4.78        42.65       
C           150.14      5.02        43.61       
C           135.45      17.5        45.92       
C           136.53      17.36       46.73       
S           135.62      16.55       44.46       
C           140.93      13.22       45.93       
C           140.0       13.35       44.86       
C           140.1       12.66       43.66       
C           141.18      11.82       43.46       
C           142.01      11.61       44.55       
C           141.93      12.28       45.79       
C           141.64      11.03       42.2        
C           142.83      10.29       42.85       
C           143.05      10.69       44.18       
C           140.61      14.14       47.1        
C           139.37      14.86       46.49       
C           139.01      14.34       45.24       
C           143.67      9.37        42.23       
C           144.8       8.88        42.92       
C           144.99      9.35        44.26       
C           144.14      10.29       44.85       
C           138.58      15.88       47.03       
C           137.42      16.35       46.35       
C           137.05      15.74       45.12       
C           137.88      14.74       44.52       
C           142.08      11.99       41.02       
C           140.67      9.93        41.69       
C           141.91      14.96       47.26       
C           140.07      13.36       48.37       
H           142.62      12.14       46.59       
H           139.36      12.75       42.89       
H           138.85      16.33       47.97       
H           137.65      14.23       43.56       
H           143.54      9.08        41.16       
H           144.35      10.65       45.85       
H           141.35      12.16       40.3        
H           142.78      11.43       40.39       
H           142.52726   12.91292    41.38917    
H           140.58      9.2         42.49       
H           141.21      9.4         40.95       
H           139.70398   10.28701    41.33299    
H           139.75      14.13       49.13       
H           139.17      12.84       48.14       
H           140.82902   12.7309     48.83499    
H           142.74      14.29       47.45       
H           142.21      15.54       46.37       
H           141.85332   15.76768    47.98975    
H           145.76      7.44        41.49       
H           136.56      17.84       47.73       
S           146.37      8.58        44.88       
C           145.81      7.95        42.47       
C           146.67      7.65        43.47       
C           131.57      18.8        47.19       
C           132.77      19.44       47.75       
C           131.78      17.83       46.26       
N           132.92      20.42       48.65       
N           134.95      19.67       48.12       
O           134.26      20.61       48.83       
H           133.23      16.7        45.15       
H           131.02      17.16       45.86       
C           133.09      17.59       45.77       
C           134.06      19.1        47.31       
C           134.22      18.13       46.3        
C           116.81      21.17       54.45       
C           117.08      19.93       53.87       
S           118.1       22.29       54.01       
C           122.27      18.95       50.7        
C           122.01      20.27       51.12       
C           122.85      21.35       50.93       
C           124.0       21.06       50.23       
C           124.27      19.71       49.77       
C           123.43      18.64       50.02       
C           125.1       22.04       49.88       
C           126.21      20.99       49.53       
C           125.62      19.73       49.21       
C           121.24      17.97       51.31       
C           120.19      18.97       51.8        
C           120.75      20.27       51.81       
C           127.59      21.24       49.23       
C           128.36      20.19       48.57       
C           127.72      18.94       48.26       
C           126.37      18.74       48.57       
C           118.96      18.77       52.35       
C           118.31      19.88       53.07       
C           118.98      21.1        53.08       
C           120.13      21.36       52.37       
C           125.51      22.76       51.14       
C           124.89      22.99       48.65       
C           121.99      17.18       52.5        
C           120.56      17.0        50.33       
H           123.63      17.54       49.81       
H           122.55      22.35       51.33       
H           118.42      17.81       52.37       
H           120.57      22.33       52.35       
H           128.12      22.2        49.35       
H           125.99      17.67       48.55       
H           126.34      23.42       50.98       
H           124.77      23.45       51.61       
H           125.88024   22.08937    51.91542    
H           124.11      23.6        49.02       
H           125.72      23.73       48.51       
H           124.70543   22.46468    47.71294    
H           119.91      16.41       50.84       
H           120.07      17.53       49.47       
H           121.22747   16.25358    49.89937    
H           121.81      16.11       52.57       
H           123.03      17.39       52.24       
H           121.77708   17.56178    53.4985     
H           130.37      21.05       48.44       
H           116.38      19.07       53.97       
S           128.96      17.89       47.53       
C           129.71      20.24       48.24       
C           130.18      19.15       47.64       
C           113.84      22.54       57.44       
C           113.66      21.31       56.67       
C           115.08      23.07       57.22       
N           112.73      20.35       56.85       
N           114.0       19.76       55.08       
O           112.87      19.47       55.79       
H           117.0       23.2        56.18       
H           115.4       24.0        57.73       
C           116.02      22.66       56.18       
C           114.51      20.88       55.63       
C           115.72      21.65       55.34       
C           107.62      27.92       71.66       
C           108.89      28.21       71.21       
S           106.74      26.88       70.52       
C           111.15      25.77       66.26       
C           109.9       25.32       66.61       
C           109.16      24.5        65.71       
C           109.73      24.05       64.54       
C           111.02      24.53       64.25       
C           111.69      25.42       65.05       
C           109.19      23.07       63.45       
C           110.35      23.18       62.43       
C           111.39      24.02       62.92       
C           111.83      26.64       67.38       
C           110.65      26.71       68.33       
C           109.52      26.03       67.75       
C           110.48      22.65       61.16       
C           111.63      22.94       60.41       
C           112.58      23.82       60.9        
C           112.5       24.44       62.15       
C           110.5       27.52       69.42       
C           109.25      27.48       70.08       
C           108.19      26.67       69.6        
C           108.23      26.05       68.37       
C           107.88      23.56       62.71       
C           109.0       21.69       63.99       
C           112.09      28.13       66.94       
C           112.95      25.93       68.16       
H           112.63      25.81       64.71       
H           108.07      24.17       65.86       
H           111.34      28.18       69.8        
H           107.33      25.66       67.96       
H           109.71      22.13       60.63       
H           113.23      25.11       62.61       
H           107.69      23.06       61.82       
H           107.03      23.48       63.32       
H           107.98384   24.6192     62.47462    
H           108.73      21.67       65.07       
H           108.12      21.3        63.39       
H           109.90754   21.10151    64.12471    
H           113.06      26.51       69.1        
H           112.71      24.94       68.37       
H           113.87895   25.91592    67.58996    
H           113.0       28.26       66.32       
H           112.1       28.85       67.76       
H           111.28534   28.53951    66.32932    
H           111.25      21.86       58.48       
H           109.58      28.88       71.76       
S           113.98      23.95       59.81       
C           111.95      22.49       59.06       
C           113.19      22.85       58.68       
C           105.44      30.05       74.78       
C           105.37      28.67       74.68       
C           106.39      30.59       73.89       
N           104.64      27.81       75.37       
N           105.63      26.67       73.73       
O           105.03      26.55       74.91       
H           107.99      30.4        72.37       
H           106.64      31.69       73.9        
C           107.23      29.87       73.01       
C           106.12      27.92       73.69       
C           107.0       28.55       72.76       
C           98.71       39.79       86.33       
C           99.14       40.18       85.15       
S           98.97       38.09       86.49       
C           101.44      36.42       80.92       
C           101.12      35.79       82.15       
C           101.26      34.44       82.35       
C           101.77      33.69       81.31       
C           102.09      34.27       80.12       
C           101.75      35.59       79.87       
C           102.31      32.29       81.41       
C           102.92      32.13       79.98       
C           102.66      33.32       79.23       
C           101.38      37.92       81.15       
C           100.67      38.02       82.43       
C           100.69      36.77       83.06       
C           103.51      31.08       79.39       
C           103.9       31.19       78.06       
C           103.7       32.43       77.37       
C           103.0       33.46       77.97       
C           100.16      39.19       83.02       
C           99.63       39.08       84.28       
C           99.71       37.86       84.95       
C           100.19      36.62       84.35       
C           101.29      31.19       81.74       
C           103.42      32.26       82.49       
C           100.58      38.55       79.99       
C           102.74      38.56       81.37       
H           102.02      35.98       78.91       
H           101.07      33.94       83.28       
H           100.37      40.21       82.62       
H           100.09      35.68       84.85       
H           103.67      30.15       79.99       
H           102.83      34.36       77.41       
H           100.79      31.52       82.67       
H           101.73      30.23       82.07       
H           100.58503   30.97362    80.93731    
H           102.98      32.3        83.5        
H           103.79      31.28       82.49       
H           104.16824   33.0506     82.43353    
H           102.75      39.4        80.66       
H           102.76      39.03       82.35       
H           103.62229   37.92034    81.34794    
H           100.45      39.64       80.1        
H           101.22      38.5        79.11       
H           99.61623    38.08623    79.77985    
H           105.05      29.37       77.52       
H           98.84       41.2        84.76       
S           104.43      32.38       75.78       
C           104.65      30.28       77.22       
C           104.94      30.77       75.99       
C           96.95       42.13       89.62       
C           96.91       42.58       88.27       
C           97.53       40.89       89.71       
N           96.34       43.66       87.77       
N           97.18       42.58       86.07       
O           96.47       43.68       86.38       
H           98.55       39.29       88.81       
H           97.67       40.46       90.67       
C           98.12       40.19       88.64       
C           97.35       41.82       87.17       
C           97.99       40.55       87.32       
C           97.7        51.87       102.93      
C           97.9        52.34       101.7       
S           96.94       50.31       102.88      
C           96.98       49.04       96.67       
C           96.65       48.45       97.91       
C           96.18       47.09       98.06       
C           96.11       46.33       96.89       
C           96.46       46.91       95.65       
C           96.91       48.25       95.52       
C           95.99       44.82       96.73       
C           96.22       44.63       95.29       
C           96.47       45.89       94.61       
C           97.49       50.46       96.85       
C           97.39       50.6        98.4        
C           96.89       49.39       98.95       
C           96.26       43.46       94.49       
C           96.38       43.58       93.1        
C           96.66       44.82       92.49       
C           96.71       45.98       93.24       
C           97.77       51.61       99.21       
C           97.56       51.49       100.61      
C           97.07       50.28       101.14      
C           96.63       49.27       100.29      
C           94.55       44.32       97.16       
C           97.11       44.01       97.55       
C           96.66       51.53       96.07       
C           99.06       50.6        96.58       
H           97.3        48.62       94.6        
H           95.85       46.66       99.06       
H           98.32       52.43       98.84       
H           96.25       48.36       100.74      
H           96.21       42.5        95.0        
H           96.88       46.94       92.69       
H           94.5        44.67       98.22       
H           93.79       44.74       96.54       
H           94.37558    43.24444    97.13093    
H           97.1        44.35       98.6        
H           96.8        42.95       97.59       
H           98.10853    44.20829    97.1605     
H           99.44       51.62       96.92       
H           99.59       49.8        97.12       
H           99.27875    50.45887    95.52154    
H           96.61       51.18       95.04       
H           95.68       51.54       96.5        
H           96.99985    52.5637     96.13372    
H           96.49       41.44       92.29       
H           98.29       53.27       101.5       
S           96.87       44.74       90.74       
C           96.49       42.53       92.12       
C           96.7        42.97       90.81       
C           98.79       53.32       106.98      
C           98.91       54.16       105.8       
C           98.11       52.17       106.74      
N           99.41       55.38       105.67      
N           98.91       54.58       103.65      
O           99.53       55.57       104.35      
H           97.24       50.79       105.37      
H           97.96       51.52       107.56      
C           97.75       51.7        105.44      
C           98.64       53.6        104.47      
C           97.94       52.37       104.27      
C           99.66       62.01       120.62      
C           100.83      61.98       119.92      
S           98.59       60.73       120.13      
C           101.34      57.92       115.17      
C           100.42      57.7        116.12      
C           99.46       56.75       115.89      
C           99.53       56.02       114.76      
C           100.42      56.37       113.74      
C           101.33      57.41       113.93      
C           98.56       54.86       114.39      
C           98.96       54.77       112.9       
C           100.14      55.55       112.61      
C           102.25      59.02       115.74      
C           101.5       59.55       116.93      
C           100.46      58.68       117.21      
C           98.37       54.06       111.92      
C           99.0        54.03       110.69      
C           100.08      54.83       110.37      
C           100.68      55.54       111.37      
C           101.8       60.71       117.76      
C           100.91      60.96       118.87      
C           99.82       60.11       118.98      
C           99.68       58.91       118.3       
C           97.05       55.32       114.5       
C           98.89       53.56       115.12      
C           102.46      60.15       114.74      
C           103.56      58.4        116.24      
H           101.94      57.77       113.08      
H           98.76       56.6        116.69      
H           102.62      61.42       117.49      
H           98.8        58.27       118.39      
H           97.46       53.51       112.02      
H           101.46      56.24       111.16      
H           96.92       55.67       115.54      
H           96.9        56.21       113.93      
H           96.31236    54.56831    114.219     
H           98.49       53.64       116.15      
H           98.36       52.65       114.78      
H           99.95385    53.39578    115.29136   
H           104.29      59.24       116.18      
H           103.45      58.04       117.31      
H           103.8844    57.53963    115.65466   
H           103.02      59.74       113.93      
H           103.12      60.85       115.1       
H           101.53486   60.63392    114.42688   
H           97.72       52.6        109.6       
H           101.6       62.75       120.16      
S           100.54      54.66       108.71      
C           98.57       53.25       109.56      
C           99.18       53.67       108.36      
C           97.89       64.68       123.58      
C           99.3        64.61       123.48      
C           97.21       63.82       122.76      
N           100.24      65.22       124.16      
N           101.23      63.69       122.73      
O           101.37      64.62       123.75      
H           97.14       62.41       121.22      
H           96.08       63.89       122.65      
C           97.82       63.09       121.74      
C           99.97       63.68       122.55      
C           99.21       62.87       121.65      
C           88.43       75.47       132.04      
C           89.73       75.81       131.74      
S           87.85       74.13       131.19      
C           93.3        72.02       128.83      
C           91.92       71.7        128.7       
C           91.51       70.57       128.09      
C           92.4        69.7        127.47      
C           93.79       70.1        127.45      
C           94.23       71.24       128.14      
C           92.13       68.23       127.05      
C           93.48       67.93       126.5       
C           94.46       69.01       126.69      
C           93.45       73.04       129.99      
C           92.08       73.67       129.92      
C           91.13       72.73       129.4       
C           93.84       66.77       125.88      
C           95.18       66.64       125.41      
C           96.17       67.6        125.75      
C           95.85       68.79       126.41      
C           91.75       74.71       130.67      
C           90.38       74.79       131.01      
C           89.39       73.89       130.47      
C           89.77       72.84       129.6       
C           91.0        68.09       126.02      
C           91.81       67.49       128.37      
C           94.51       74.07       129.64      
C           93.58       72.35       131.36      
H           95.33       71.44       128.25      
H           90.44       70.42       128.02      
H           92.44       75.52       130.99      
H           89.12       72.02       129.4       
H           93.1        66.1        125.57      
H           96.66       69.45       126.72      
H           90.74       67.03       125.78      
H           90.06       68.48       126.41      
H           91.2132     68.65142    125.11036   
H           90.79       67.55       128.67      
H           92.0        66.42       128.16      
H           92.44794    67.73008    129.22058   
H           93.29       73.04       132.13      
H           92.88       71.5        131.4       
H           94.62012    72.14891    131.61656   
H           95.48       73.51       129.49      
H           94.68       74.74       130.51      
H           94.26618    74.55068    128.69258   
H           95.14       64.78       124.27      
H           90.24       76.66       132.09      
S           97.74       67.05       125.07      
C           95.73       65.59       124.57      
C           97.07       65.64       124.31      
C           86.4        76.16       135.94      
C           85.64       75.89       134.8       
C           87.77       76.17       135.67      
N           84.32       75.83       134.72      
N           85.2        75.33       132.65      
O           84.1        75.43       133.41      
H           89.37       76.02       134.47      
H           88.47       76.35       136.52      
C           88.31       76.08       134.43      
C           86.21       75.64       133.48      
C           87.66       75.86       133.27      
C           81.3        81.97       150.36      
C           82.48       82.35       149.85      
S           80.59       80.6        149.54      
C           84.98       79.67       144.97      
C           83.73       79.06       145.46      
C           83.24       77.85       144.87      
C           83.61       77.48       143.58      
C           84.74       78.12       143.08      
C           85.52       79.11       143.78      
C           82.83       76.58       142.6       
C           83.7        76.87       141.35      
C           84.82       77.65       141.69      
C           85.4        80.94       145.78      
C           84.25       80.99       146.82      
C           83.31       79.94       146.58      
C           83.53       76.26       140.12      
C           84.53       76.54       139.14      
C           85.63       77.32       139.52      
C           85.81       77.82       140.78      
C           84.09       81.85       147.92      
C           82.95       81.61       148.71      
C           81.97       80.64       148.35      
C           82.12       79.81       147.21      
C           81.36       77.03       142.38      
C           82.83       75.07       142.93      
C           85.29       82.23       144.96      
C           86.72       80.74       146.58      
H           86.37       79.5        143.25      
H           82.43       77.44       145.35      
H           84.75       82.71       148.23      
H           81.43       79.07       146.92      
H           82.7        75.62       139.92      
H           86.73       78.3        140.97      
H           80.78       76.8        143.31      
H           80.95       76.49       141.47      
H           81.26023    78.08467    142.12346   
H           83.85       74.83       142.73      
H           82.2        74.58       142.27      
H           82.54481    74.77089    143.93861   
H           87.06       81.69       146.94      
H           86.46       80.09       147.46      
H           87.51595    80.24344    146.02503   
H           86.26       82.31       144.46      
H           85.27       83.06       145.58      
H           84.44287    82.24345    144.27423   
H           84.12       75.37       137.32      
H           83.18       83.04       150.36      
S           86.85       77.41       138.31      
C           84.73       76.1        137.79      
C           85.91       76.44       137.27      
C           78.6        83.53       153.61      
C           80.03       83.7        153.65      
C           78.24       82.71       152.56      
N           80.74       84.42       154.45      
N           82.21       83.6        152.96      
O           82.08       84.4        154.08      
H           78.74       81.63       150.79      
H           77.15       82.42       152.48      
C           79.17       82.22       151.56      
C           80.96       83.26       152.61      
C           80.52       82.45       151.49      
C           65.28       88.52       162.14      
C           65.28       87.6        161.16      
S           66.88       89.12       162.5       
C           70.25       85.41       158.67      
C           70.43       86.47       159.52      
C           71.64       87.05       159.57      
C           72.77       86.49       158.95      
C           72.57       85.44       158.02      
C           71.27       84.92       157.85      
C           74.22       87.07       158.85      
C           74.83       86.05       157.89      
C           73.82       85.14       157.35      
C           68.88       84.84       158.89      
C           68.16       85.98       159.58      
C           69.17       86.83       160.08      
C           76.09       86.1        157.28      
C           76.44       85.16       156.31      
C           75.41       84.27       155.87      
C           74.13       84.31       156.35      
C           66.82       86.24       159.77      
C           66.55       87.32       160.67      
C           67.56       87.99       161.32      
C           68.85       87.81       160.96      
C           74.92       86.86       160.21      
C           74.34       88.52       158.41      
C           68.89       83.52       159.68      
C           68.24       84.56       157.53      
H           71.11       84.09       157.15      
H           71.79       88.05       159.98      
H           66.08       85.55       159.41      
H           69.6        88.53       161.34      
H           76.75       86.87       157.59      
H           73.3        83.7        155.96      
H           75.93       87.27       160.13      
H           74.46       87.51       160.96      
H           74.97742    85.81205    160.50429   
H           73.8        89.09       159.12      
H           75.36       88.87       158.39      
H           73.87636    88.70264    157.44058   
H           68.79       83.8        156.97      
H           67.28       84.06       157.82      
H           68.1074     85.38507    156.83016   
H           68.88       82.64       159.03      
H           68.1        83.43       160.4       
H           69.80947    83.37802    160.24791   
H           78.54       85.71       155.73      
H           64.35       87.14       160.8       
S           76.15       83.13       154.72      
C           77.67       85.01       155.58      
C           77.64       84.0        154.59      
C           61.99       90.13       164.69      
C           61.71       89.41       163.46      
C           63.34       90.17       164.94      
N           60.5        89.18       162.94      
N           62.2        88.13       161.71      
O           60.83       88.34       161.88      
H           65.36       89.83       164.55      
H           63.63       90.7        165.85      
C           64.34       89.64       164.11      
C           62.77       88.81       162.67      
C           64.18       89.01       162.89      
H           165.44      -2.84       40.08       
H           61.21       90.51       165.36      
