612

C           149.3       11.22       5.6         
C           150.03      10.82       4.57        
S           148.58      9.76        6.35        
C           151.13      5.06        2.95        
C           150.22      5.14        4.04        
C           149.73      4.02        4.75        
C           150.33      2.73        4.43        
C           151.3       2.68        3.37        
C           151.66      3.8         2.62        
C           150.22      1.4         5.18        
C           151.17      0.56        4.33        
C           151.86      1.36        3.38        
C           151.53      6.4         2.37        
C           150.67      7.36        3.2         
C           149.92      6.58        4.14        
C           151.62      -0.71       4.62        
C           152.69      -1.19       3.86        
C           153.4       -0.43       2.89        
C           153.0       0.88        2.63        
C           150.74      8.71        3.26        
C           150.1       9.42        4.25        
C           149.28      8.7         5.12        
C           149.13      7.31        5.03        
C           148.82      0.68        5.04        
C           150.81      1.44        6.64        
C           151.25      6.56        0.84        
C           153.06      6.64        2.63        
H           152.42      3.72        1.88        
H           149.08      4.13        5.64        
H           151.39      9.16        2.56        
H           148.55      6.78        5.81        
H           151.23      -1.33       5.4         
H           153.47      1.46        1.94        
H           148.12      1.27        5.6         
H           148.87      -0.27       5.48        
H           148.41585   0.48147     4.04735     
H           151.92      1.54        6.55        
H           150.69      0.44        7.06        
H           150.28711   2.11627     7.31627     
H           153.65      5.91        2.12        
H           153.32      7.64        2.19        
H           153.19756   6.7848      3.70154     
H           151.63      5.68        0.26        
H           151.92      7.42        0.51        
H           150.19497   6.73109     0.62614     
H           152.91      -3.28       4.67        
H           150.73      11.41       3.98        
S           154.68      -1.34       2.15        
C           153.32      -2.46       4.05        
C           154.41      -2.66       3.25        
C           149.26      15.15       7.64        
C           149.93      14.93       6.41        
C           148.76      13.99       8.13        
N           150.62      15.83       5.75        
N           150.79      13.87       4.6         
O           151.15      15.2        4.75        
H           148.03      11.93       7.82        
H           148.36      13.91       9.18        
C           148.68      12.73       7.43        
C           149.93      13.69       5.59        
C           149.23      12.55       6.18        
C           144.79      27.66       17.33       
C           144.26      26.42       17.34       
S           145.86      27.9        15.95       
C           146.26      22.15       13.78       
C           146.63      23.45       13.32       
C           147.38      23.66       12.2        
C           147.75      22.44       11.5        
C           147.52      21.15       12.05       
C           146.73      21.06       13.17       
C           148.47      22.38       10.16       
C           148.8       20.91       10.12       
C           148.16      20.17       11.14       
C           144.99      22.25       14.66       
C           145.1       23.73       15.02       
C           146.01      24.45       14.2        
C           149.28      20.2        9.05        
C           149.08      18.78       9.07        
C           148.57      18.14       10.19       
C           148.16      18.83       11.3        
C           144.35      24.32       16.01       
C           144.7       25.64       16.25       
C           145.58      26.27       15.38       
C           146.2       25.77       14.26       
C           149.77      23.22       10.08       
C           147.57      22.73       8.91        
C           145.27      21.43       15.91       
C           143.71      21.97       13.85       
H           146.5       20.08       13.46       
H           147.47      24.61       11.67       
H           143.62      23.77       16.59       
H           146.81      26.39       13.54       
H           149.91      20.66       8.29        
H           147.77      18.5        12.2        
H           149.48      24.27       10.2        
H           150.14      23.13       9.09        
H           150.523     22.85061    10.77617    
H           146.75      22.02       8.79        
H           148.25      22.59       8.07        
H           147.2071    23.75589    8.84719     
H           142.93      21.95       14.65       
H           143.46      22.63       13.08       
H           143.67397   20.93226    13.5185     
H           144.36      21.06       16.45       
H           145.65      20.5        15.63       
H           146.02225   21.89742    16.5454     
H           150.1       17.97       7.21        
H           143.64      26.1        18.21       
S           148.52      16.41       10.04       
C           149.46      17.77       8.08        
C           149.13      16.46       8.42        
C           143.72      31.38       19.49       
C           142.85      30.21       19.59       
C           144.88      31.16       18.88       
N           141.63      29.97       20.12       
N           142.27      28.1        19.07       
O           141.32      28.68       19.8        
H           146.15      29.99       17.56       
H           145.59      32.0        18.79       
C           145.24      29.93       18.18       
C           143.25      29.0        18.85       
C           144.47      28.85       18.12       
C           142.24      44.85       28.37       
C           143.19      44.84       27.35       
S           140.98      43.68       28.04       
C           143.12      40.52       23.04       
C           142.03      40.52       23.93       
C           141.08      39.47       24.04       
C           141.24      38.32       23.24       
C           142.25      38.32       22.32       
C           143.22      39.35       22.24       
C           140.31      37.11       23.24       
C           141.15      36.28       22.16       
C           142.26      37.04       21.69       
C           144.11      41.68       23.35       
C           143.37      42.34       24.5        
C           142.13      41.71       24.82       
C           141.13      34.92       21.9        
C           142.16      34.35       21.17       
C           143.19      35.13       20.68       
C           143.26      36.57       20.83       
C           143.71      43.37       25.31       
C           142.96      43.8        26.39       
C           141.8       43.04       26.65       
C           141.36      41.99       25.94       
C           138.84      37.52       22.84       
C           140.36      36.38       24.6        
C           144.38      42.58       22.14       
C           145.49      41.13       23.85       
H           143.98      39.27       21.54       
H           140.21      39.54       24.73       
H           144.68      43.86       25.16       
H           140.47      41.42       26.09       
H           140.35      34.35       22.39       
H           144.12      37.1        20.37       
H           138.31      37.61       23.79       
H           138.79      38.49       22.34       
H           138.38099   36.7527     22.21657    
H           139.63      36.78       25.35       
H           140.09      35.31       24.52       
H           141.31423   36.50106    25.11272    
H           146.02      40.59       23.07       
H           146.15      41.99       24.06       
H           145.41261   40.55313    24.77159    
H           145.39      43.01       22.16       
H           144.36      41.99       21.3        
H           143.60217   43.31502    21.93305    
H           141.67      32.15       21.24       
H           143.97      45.62       27.2        
S           144.31      34.18       19.79       
C           142.36      32.91       20.85       
C           143.35      32.67       20.05       
C           141.18      47.23       31.92       
C           141.85      47.8        30.79       
C           140.95      45.88       31.79       
N           142.13      49.08       30.56       
N           142.94      47.87       28.83       
O           142.8       49.12       29.31       
H           141.15      44.09       30.59       
H           140.35      45.35       32.47       
C           141.41      45.13       30.64       
C           142.33      47.06       29.67       
C           142.0       45.66       29.52       
C           132.76      55.0        43.87       
C           132.88      53.64       43.8        
S           133.55      55.68       42.44       
C           135.39      50.54       39.27       
C           135.4       51.97       39.14       
C           136.11      52.65       38.15       
C           136.89      51.91       37.29       
C           136.94      50.47       37.4        
C           136.09      49.77       38.35       
C           137.86      52.47       36.2        
C           138.47      51.14       35.78       
C           137.75      49.97       36.3        
C           134.5       50.08       40.41       
C           134.25      51.47       41.07       
C           134.63      52.5        40.2        
C           139.46      50.93       34.86       
C           139.74      49.63       34.44       
C           139.01      48.57       34.92       
C           138.07      48.69       35.94       
C           133.53      51.7        42.19       
C           133.43      53.06       42.54       
C           133.78      54.09       41.69       
C           134.4       53.84       40.49       
C           138.89      53.39       37.0        
C           137.12      53.11       35.0        
C           135.19      49.11       41.37       
C           133.13      49.43       39.98       
H           136.05      48.69       38.34       
H           135.89      53.68       37.97       
H           133.11      50.9        42.77       
H           134.77      54.64       39.83       
H           139.91      51.75       34.4        
H           137.7       47.8        36.4        
H           138.45      54.13       37.64       
H           139.42      52.7        37.72       
H           139.60716   53.88704    36.34675    
H           137.13      54.19       35.15       
H           137.69      52.83       34.14       
H           136.07497   52.8014     34.97195    
H           132.48      49.38       40.87       
H           132.51      50.09       39.42       
H           133.13      48.50217    39.40796    
H           135.38      48.21       40.77       
H           134.55      48.84       42.23       
H           136.17649   49.44822    41.68709    
H           141.15      49.97       32.7        
H           132.48      53.02       44.61       
S           139.53      47.1        34.1        
C           140.53      49.32       33.28       
C           140.59      47.98       33.03       
C           132.54      57.97       47.2        
C           132.33      56.56       47.39       
C           132.62      58.25       45.85       
N           132.29      55.9        48.53       
N           132.3       54.36       46.8        
O           132.21      54.6        48.12       
H           132.86      57.62       43.81       
H           132.82      59.26       45.49       
C           132.59      57.28       44.78       
C           132.43      55.6        46.32       
C           132.54      55.96       44.97       
C           135.92      71.51       56.13       
C           136.29      71.39       54.81       
S           135.09      70.13       56.79       
C           135.09      66.31       51.77       
C           134.75      66.19       53.16       
C           134.29      64.97       53.75       
C           134.08      63.93       52.88       
C           134.13      64.13       51.45       
C           134.66      65.31       50.95       
C           133.63      62.5        53.25       
C           133.42      61.88       51.84       
C           133.66      62.84       50.88       
C           135.97      67.53       51.53       
C           135.61      68.35       52.76       
C           135.06      67.47       53.79       
C           133.09      60.55       51.52       
C           132.94      60.24       50.18       
C           133.06      61.24       49.22       
C           133.48      62.52       49.55       
C           136.1       69.58       52.97       
C           135.97      70.09       54.26       
C           135.32      69.27       55.26       
C           134.83      67.96       55.07       
C           132.3       62.62       54.06       
C           134.63      61.69       54.09       
C           135.44      68.32       50.33       
C           137.53      67.35       51.59       
H           134.95      65.34       49.89       
H           134.25      64.86       54.84       
H           136.46      70.2        52.16       
H           134.31      67.46       55.89       
H           132.96      59.81       52.33       
H           133.6       63.31       48.77       
H           132.5       63.02       55.04       
H           131.97      61.58       54.16       
H           131.53458   63.19234    53.53593    
H           134.77      62.24       55.07       
H           134.23      60.72       54.25       
H           135.60223   61.5383     53.62112    
H           138.11      68.12       51.14       
H           137.9       67.33       52.59       
H           137.84798   66.46833    51.03354    
H           135.99      69.18       50.13       
H           135.52      67.63       49.44       
H           134.42346   68.67327    50.50303    
H           132.49      58.08       50.24       
H           136.75      72.11       54.13       
S           132.86      60.62       47.6        
C           132.7       58.94       49.6        
C           132.75      59.02       48.22       
C           136.14      74.92       58.93       
C           137.08      74.79       57.9        
C           135.19      73.96       58.92       
N           138.11      75.56       57.64       
N           138.07      73.88       56.03       
O           138.68      75.0        56.51       
H           134.4       72.18       58.11       
H           134.34      74.0        59.59       
C           135.23      72.85       58.07       
C           137.05      73.71       56.91       
C           136.14      72.62       57.02       
C           136.48      83.18       73.41       
C           135.41      83.16       72.51       
S           137.81      82.24       72.73       
C           135.18      80.01       67.28       
C           136.32      79.9        68.05       
C           137.51      79.29       67.52       
C           137.38      78.78       66.24       
C           136.21      78.81       65.5        
C           135.03      79.45       66.03       
C           138.44      78.01       65.4        
C           137.78      77.78       64.08       
C           136.39      78.2        64.18       
C           134.07      80.71       68.1        
C           134.86      81.13       69.36       
C           136.18      80.6        69.32       
C           138.23      77.23       62.91       
C           137.34      77.02       61.8        
C           136.02      77.51       61.95       
C           135.51      78.1        63.1        
C           134.53      82.0        70.46       
C           135.5       82.27       71.43       
C           136.76      81.73       71.36       
C           137.1       80.91       70.3        
C           138.48      76.7        66.24       
C           139.75      78.8        65.35       
C           132.89      79.71       68.32       
C           133.65      82.02       67.41       
H           134.18      79.65       65.42       
H           138.37      79.33       68.18       
H           133.56      82.31       70.63       
H           138.08      80.4        70.34       
H           139.25      76.98       62.84       
H           134.49      78.4        63.09       
H           138.95      76.93       67.2        
H           137.49      76.42       66.56       
H           138.97072   75.82524    65.81329    
H           140.27      78.63       66.24       
H           140.34      78.17       64.72       
H           139.62918   79.8305     65.01598    
H           134.37      82.81       67.74       
H           133.89      81.98       66.39       
H           132.63405   82.39393    67.53699    
H           131.9       79.88       67.78       
H           133.22      78.8        67.85       
H           132.65769   79.50673    69.36538    
H           138.44      75.77       60.41       
H           134.53      83.68       72.69       
S           135.09      76.96       60.62       
C           137.53      76.22       60.62       
C           136.36      75.88       60.01       
C           136.96      84.96       77.38       
C           135.78      85.12       76.66       
C           137.95      84.26       76.74       
N           134.67      85.65       77.05       
N           134.47      84.94       74.86       
O           133.84      85.46       75.94       
H           138.7       83.14       75.08       
H           138.89      84.14       77.27       
C           137.88      83.75       75.41       
C           135.69      84.55       75.34       
C           136.73      83.81       74.7        
C           139.51      87.36       93.52       
C           140.4       86.71       92.77       
S           138.53      88.41       92.54       
C           140.06      86.66       86.69       
C           139.29      87.66       87.27       
C           138.41      88.37       86.47       
C           138.14      88.03       85.14       
C           138.89      87.0        84.64       
C           139.93      86.4        85.35       
C           137.06      88.56       84.26       
C           137.19      87.66       83.1        
C           138.39      86.88       83.26       
C           140.67      85.74       87.7        
C           140.41      86.5        89.0        
C           139.52      87.57       88.69       
C           136.52      87.6        81.83       
C           136.95      86.79       80.78       
C           138.12      85.99       81.08       
C           138.8       85.96       82.24       
C           140.72      86.09       90.24       
C           140.13      86.82       91.34       
C           139.13      87.73       91.08       
C           138.84      88.16       89.76       
C           137.29      90.1        83.93       
C           135.69      88.41       84.84       
C           142.22      85.63       87.39       
C           140.04      84.37       87.79       
H           140.51      85.56       84.88       
H           137.74      89.11       86.97       
H           141.45      85.29       90.34       
H           138.09      88.88       89.53       
H           135.74      88.3        81.64       
H           139.64      85.4        82.38       
H           136.4       90.75       84.09       
H           138.07      90.55       84.59       
H           137.64343   90.31353    82.92124    
H           135.73      88.91       85.77       
H           134.92      88.84       84.22       
H           135.41368   87.37015    85.01452    
H           140.54      83.58       87.24       
H           139.91      84.07       88.83       
H           139.02131   84.31418    87.40625    
H           142.55      85.42       86.43       
H           142.8       84.83       87.84       
H           142.73194   86.56144    87.63175    
H           135.7       87.09       79.0        
H           141.17      86.06       93.15       
S           138.61      85.1        79.73       
C           136.56      86.58       79.43       
C           137.26      85.64       78.71       
C           138.87      88.0        97.9        
C           140.0       87.22       97.41       
C           137.99      88.35       96.89       
N           141.0       86.58       98.04       
N           141.34      86.3        95.82       
O           141.76      86.05       97.02       
H           137.39      88.36       94.9        
H           137.01      88.77       97.09       
C           138.21      88.08       95.47       
C           140.2       87.0        95.96       
C           139.34      87.49       94.97       
C           133.49      91.24       112.8       
C           133.5       92.16       111.77      
S           134.75      90.05       112.55      
C           136.58      91.52       106.75      
C           136.99      90.66       107.71      
C           137.79      89.5        107.49      
C           138.15      89.24       106.18      
C           137.68      90.09       105.18      
C           136.93      91.18       105.44      
C           138.94      88.14       105.57      
C           138.99      88.58       104.11      
C           138.09      89.61       103.89      
C           135.81      92.7        107.2       
C           135.53      92.1        108.66      
C           136.31      90.97       108.96      
C           139.34      87.84       103.01      
C           138.94      88.27       101.72      
C           138.09      89.33       101.57      
C           137.65      90.04       102.62      
C           134.62      92.6        109.52      
C           134.51      91.89       110.73      
C           135.32      90.79       111.08      
C           136.26      90.26       110.19      
C           138.21      86.79       105.78      
C           140.44      88.09       106.09      
C           134.4       92.85       106.41      
C           136.53      94.09       107.39      
H           136.44      91.68       104.67      
H           137.95      88.75       108.31      
H           133.9       93.41       109.29      
H           136.81      89.34       110.32      
H           139.83      86.95       103.15      
H           136.98      90.89       102.5       
H           138.86      85.86       105.77      
H           137.67      86.79       106.72      
H           137.40364   86.61721    105.06724   
H           140.44      88.28       107.18      
H           140.9       87.19       105.82      
H           141.03159   88.92392    105.71224   
H           135.97      94.65       108.1       
H           137.5       93.95       107.9       
H           136.66568   94.63273    106.45451   
H           134.58      93.01       105.36      
H           133.91      93.72       106.77      
H           133.71807   92.00469    106.50234   
H           140.03      86.89       100.49      
H           132.79      92.96       111.76      
S           137.7       89.61       99.93       
C           139.3       87.7        100.49      
C           138.65      88.28       99.37       
C           130.28      91.32       115.82      
C           131.62      90.9        116.15      
C           130.14      91.71       114.52      
N           132.07      90.46       117.29      
N           133.79      90.3        115.75      
O           133.37      90.02       117.04      
H           131.16      92.0        112.51      
H           129.13      92.09       114.23      
C           131.21      91.66       113.52      
C           132.64      90.67       115.15      
C           132.48      91.22       113.83      
C           115.81      90.36       123.68      
C           115.99      90.31       122.32      
S           117.31      90.49       124.53      
C           121.36      90.61       119.73      
C           121.42      90.74       121.14      
C           122.63      90.87       121.84      
C           123.8       91.04       121.19      
C           123.75      90.8        119.78      
C           122.6       90.53       119.07      
C           125.22      91.34       121.65      
C           125.99      91.3        120.22      
C           125.1       90.94       119.19      
C           119.87      90.67       119.22      
C           119.15      90.65       120.55      
C           120.07      90.7        121.68      
C           127.27      91.66       119.91      
C           127.7       91.59       118.56      
C           126.84      91.04       117.63      
C           125.48      90.79       117.87      
C           117.81      90.41       120.68      
C           117.37      90.42       121.98      
C           118.22      90.66       123.04      
C           119.58      90.78       122.91      
C           125.8       90.36       122.69      
C           125.35      92.8        122.01      
C           119.46      89.44       118.37      
C           119.58      92.0        118.51      
H           122.68      90.37       117.99      
H           122.61      91.11       122.88      
H           117.13      90.25       119.81      
H           120.24      91.08       123.72      
H           128.06      91.9        120.7       
H           124.72      90.54       117.08      
H           125.33      90.36       123.7       
H           126.83      90.72       122.82      
H           125.62076   89.32936    122.3838    
H           125.21      93.52       121.25      
H           126.4       92.88       122.31      
H           124.68102   93.11359    122.81139   
H           118.56      91.88       118.19      
H           119.6       92.84       119.22      
H           120.24659   92.2626     117.68854   
H           119.92      89.54       117.38      
H           118.4       89.31       118.23      
H           119.76306   88.48852    118.80697   
H           129.9       92.17       118.59      
H           115.17      90.18       121.62      
S           127.61      90.92       116.01      
C           129.03      91.9        118.02      
C           129.15      91.49       116.71      
C           112.0       89.07       125.58      
C           112.99      89.85       126.31      
C           112.43      88.8        124.31      
N           112.98      90.37       127.54      
N           114.96      90.88       126.7       
O           114.16      91.0        127.81      
H           113.85      89.01       122.75      
H           111.75      88.19       123.68      
C           113.72      89.23       123.79      
C           114.29      90.2        125.73      
C           114.62      90.04       124.36      
C           98.49       81.82       131.91      
C           98.87       81.5        130.65      
S           99.82       82.63       132.75      
C           103.78      83.98       128.05      
C           103.59      84.29       129.38      
C           104.36      85.28       130.12      
C           105.31      85.94       129.4       
C           105.56      85.69       128.04      
C           104.79      84.7        127.39      
C           106.08      87.14       129.84      
C           107.1       87.3        128.72      
C           106.82      86.39       127.64      
C           102.75      82.93       127.56      
C           101.99      82.64       128.85      
C           102.5       83.49       129.89      
C           108.19      88.11       128.67      
C           109.02      88.1        127.55      
C           108.68      87.21       126.48      
C           107.53      86.42       126.52      
C           100.88      81.92       129.09      
C           100.16      82.09       130.24      
C           100.76      82.69       131.36      
C           102.01      83.38       131.21      
C           106.83      86.91       131.17      
C           105.18      88.38       129.95      
C           103.32      81.66       126.88      
C           101.66      83.6        126.62      
H           105.05      84.28       126.45      
H           104.14      85.55       131.16      
H           100.5       81.19       128.31      
H           102.53      83.93       132.0       
H           108.53      88.68       129.53      
H           107.18      85.83       125.63      
H           107.06      87.88       131.53      
H           106.09      86.5        131.8       
H           107.73951   86.32931    131.01608   
H           104.41      88.1        130.71      
H           105.74      89.3        130.25      
H           104.61458   88.57826    129.03945   
H           100.9       82.83       126.41      
H           101.24      84.43       127.14      
H           102.02917   83.91126    125.64279   
H           103.9       81.8        125.99      
H           102.41      81.17       126.58      
H           104.00157   81.11612    127.53403   
H           110.71      89.38       128.08      
H           98.24       80.8        130.11      
S           109.81      87.37       125.16      
C           110.28      88.77       127.33      
C           110.73      88.6        126.08      
C           95.0        80.75       134.32      
C           95.42       80.0        133.14      
C           95.9        81.65       134.61      
N           94.85       78.98       132.57      
N           96.58       79.51       131.3       
O           95.53       78.68       131.4       
H           97.65       82.75       134.11      
H           95.63       82.26       135.49      
C           97.04       81.95       133.84      
C           96.48       80.31       132.29      
C           97.34       81.41       132.65      
H           155.14      -3.49       3.46        
H           94.33       80.36       135.11      
