612

C           157.12      17.23       2.15        
C           156.16      16.74       1.36        
S           158.69      16.61       1.75        
C           157.49      13.04       -3.39       
C           158.6       13.48       -2.6        
C           159.88      13.04       -2.89       
C           160.17      12.21       -3.95       
C           159.14      11.7        -4.68       
C           157.79      12.09       -4.32       
C           161.54      11.84       -4.5        
C           161.04      10.79       -5.55       
C           159.63      10.71       -5.63       
C           156.18      13.51       -2.73       
C           156.66      14.35       -1.54       
C           158.09      14.33       -1.57       
C           161.78      10.15       -6.5        
C           161.1       9.32        -7.45       
C           159.72      9.11        -7.35       
C           158.88      9.82        -6.46       
C           155.95      15.18       -0.65       
C           156.68      15.87       0.33        
C           158.06      15.67       0.38        
C           158.79      15.0        -0.53       
C           162.36      11.14       -3.34       
C           162.29      13.03       -5.11       
C           155.46      12.24       -2.19       
C           155.29      14.4        -3.67       
H           156.98      11.56       -4.81       
H           160.69      13.44       -2.31       
H           154.88      15.21       -0.7        
H           159.87      14.93       -0.4        
H           162.83      10.23       -6.58       
H           157.76      9.78        -6.47       
H           162.58      11.77       -2.5        
H           163.35      10.97       -3.77       
H           161.88507   10.18295    -3.12412    
H           161.71      13.45       -5.97       
H           163.23      12.71       -5.62       
H           162.41951   13.88623    -4.44804    
H           154.3       14.43       -3.22       
H           155.72      15.35       -3.61       
H           155.15207   14.05156    -4.69355    
H           155.56      11.39       -2.93       
H           154.38      12.36       -1.91       
H           155.94748   11.89382    -1.27862    
H           162.72      8.79        -8.82       
H           155.08      16.79       1.46        
S           159.1       8.14        -8.62       
C           161.64      8.67        -8.59       
C           160.72      7.94        -9.3        
C           156.77      19.61       5.92        
C           155.71      18.83       5.41        
C           157.91      19.5        5.2         
N           154.49      18.66       5.89        
N           154.7       17.39       3.92        
O           153.84      18.02       4.81        
H           159.07      18.62       3.62        
H           158.79      20.08       5.44        
C           158.04      18.67       3.97        
C           155.87      18.0        4.19        
C           157.05      17.94       3.42        
C           155.9       33.64       14.78       
C           156.93      33.3        13.91       
S           154.7       32.36       14.82       
C           157.56      27.77       11.33       
C           156.35      27.93       12.02       
C           155.3       27.02       11.96       
C           155.52      25.75       11.39       
C           156.79      25.56       10.72       
C           157.76      26.59       10.61       
C           154.6       24.54       11.31       
C           155.39      23.71       10.3        
C           156.65      24.27       10.04       
C           158.5       28.96       11.55       
C           157.49      30.0        12.16       
C           156.35      29.29       12.63       
C           155.07      22.5        9.73        
C           155.89      21.92       8.75        
C           157.06      22.58       8.42        
C           157.53      23.69       9.1         
C           157.63      31.3        12.55       
C           156.72      31.96       13.32       
C           155.6       31.27       13.74       
C           155.35      29.95       13.38       
C           153.19      24.9        10.76       
C           154.54      23.71       12.63       
C           158.98      29.49       10.21       
C           159.67      28.76       12.61       
H           158.59      26.51       9.96        
H           154.32      27.2        12.38       
H           158.58      31.85       12.49       
H           154.5       29.46       13.84       
H           154.13      21.91       9.98        
H           158.46      24.15       8.8         
H           152.57      25.28       11.56       
H           152.64      23.97       10.55       
H           153.32375   25.57577    9.91528     
H           155.42      23.11       12.85       
H           153.8       22.92       12.37       
H           154.24682   24.26061    13.52385    
H           160.19      29.73       12.74       
H           159.22      28.53       13.59       
H           160.47173   28.06376    12.36386    
H           159.78      30.21       10.43       
H           159.49      28.7        9.7         
H           158.19127   29.92662    9.59733     
H           154.72      20.27       7.87        
H           157.81      33.96       13.74       
S           157.96      21.74       7.15        
C           155.67      20.76       7.9         
C           156.7       20.49       7.04        
C           155.37      37.15       17.49       
C           156.33      37.15       16.42       
C           154.63      36.0        17.55       
N           157.17      38.12       16.05       
N           157.32      36.39       14.6        
O           157.79      37.64       14.91       
H           154.14      33.99       16.82       
H           153.83      35.9        18.26       
C           154.71      34.86       16.58       
C           156.42      36.04       15.51       
C           155.64      34.84       15.57       
C           153.08      51.43       26.29       
C           154.12      51.07       25.42       
S           152.0       50.03       26.53       
C           154.67      45.89       22.31       
C           153.67      45.85       23.29       
C           152.79      44.73       23.47       
C           153.09      43.58       22.69       
C           154.16      43.62       21.73       
C           154.87      44.8        21.48       
C           152.67      42.11       22.81       
C           153.39      41.35       21.65       
C           154.21      42.32       21.01       
C           155.47      47.16       22.42       
C           154.71      47.87       23.51       
C           153.62      47.15       23.98       
C           153.45      40.0        21.31       
C           154.22      39.61       20.16       
C           155.01      40.61       19.56       
C           155.07      41.92       19.99       
C           155.01      49.09       24.03       
C           154.08      49.7        24.93       
C           153.01      49.0        25.49       
C           152.81      47.64       25.04       
C           151.1       42.16       22.77       
C           153.18      41.56       24.21       
C           155.33      47.92       21.08       
C           156.92      46.77       22.74       
H           155.51      44.89       20.58       
H           152.05      44.76       24.19       
H           155.97      49.56       23.75       
H           151.98      47.09       25.49       
H           152.83      39.31       21.9        
H           155.66      42.66       19.45       
H           150.81      42.5        23.77       
H           150.71      42.86       22.06       
H           150.56865   41.23013    22.56725    
H           152.57      41.98       25.07       
H           153.12      40.48       24.26       
H           154.16723   41.88671    24.53671    
H           157.25      46.2        21.88       
H           157.54      47.64       22.77       
H           157.04146   46.2913     23.71169    
H           155.64      47.32       20.17       
H           154.32      48.31       20.93       
H           155.90004   48.84895    21.06592    
H           153.8       37.41       19.83       
H           154.85      51.84       25.1        
S           155.89      39.93       18.23       
C           154.34      38.28       19.5        
C           155.13      38.31       18.38       
C           152.63      55.53       28.01       
C           151.57      54.6        28.08       
C           153.69      55.11       27.3        
N           150.35      54.77       28.55       
N           150.48      52.7        27.72       
O           149.77      53.61       28.41       
H           154.82      53.54       26.32       
H           154.55      55.71       27.09       
C           153.85      53.76       26.75       
C           151.66      53.29       27.56       
C           152.92      52.77       26.9        
C           152.56      69.24       37.39       
C           153.7       68.55       37.16       
S           151.2       68.48       36.61       
C           153.87      63.48       33.7        
C           152.64      64.1        33.92       
C           151.54      63.74       33.07       
C           151.67      62.66       32.24       
C           152.84      61.96       32.24       
C           154.01      62.46       32.76       
C           150.65      62.12       31.24       
C           151.36      60.94       30.71       
C           152.65      60.85       31.32       
C           154.94      64.14       34.61       
C           154.07      65.24       35.2        
C           152.75      65.26       34.75       
C           150.95      59.91       29.82       
C           151.78      58.87       29.53       
C           153.14      58.87       30.06       
C           153.57      59.85       31.06       
C           154.5       66.33       36.0        
C           153.55      67.34       36.36       
C           152.22      67.23       35.92       
C           151.81      66.16       35.16       
C           150.21      63.16       30.22       
C           149.36      61.72       32.1        
C           156.12      64.75       33.82       
C           155.51      63.06       35.57       
H           155.03      62.03       32.64       
H           150.63      64.37       33.02       
H           155.48      66.44       36.32       
H           150.78      66.03       35.02       
H           149.94      59.95       29.41       
H           154.51      59.78       31.64       
H           149.28      62.84       29.72       
H           150.05      64.07       30.77       
H           150.96111   63.32453    29.44743    
H           148.92      62.71       32.58       
H           148.61      61.31       31.46       
H           149.51802   61.00171    32.90448    
H           155.19      62.03       35.24       
H           156.61      63.07       35.53       
H           155.20959   63.14583    36.61427    
H           156.69      63.99       33.3        
H           156.8       65.31       34.56       
H           155.81328   65.39266    32.99477    
H           150.47      57.37       28.54       
H           154.66      68.67       37.7        
S           153.99      57.44       29.41       
C           151.46      57.65       28.86       
C           152.54      56.88       28.56       
C           151.77      72.26       40.54       
C           152.82      71.27       40.66       
C           151.05      72.13       39.41       
N           153.71      70.99       41.57       
N           154.05      69.58       39.95       
O           154.43      69.94       41.16       
H           150.59      71.23       37.58       
H           150.19      72.73       39.22       
C           151.34      71.16       38.41       
C           153.05      70.32       39.65       
C           152.29      70.21       38.46       
C           144.8       79.99       53.23       
C           144.26      79.77       51.97       
S           146.54      79.61       53.24       
C           147.27      77.66       47.12       
C           148.02      77.79       48.27       
C           149.34      77.32       48.33       
C           149.94      76.79       47.22       
C           149.13      76.56       46.12       
C           147.79      76.96       46.1        
C           151.29      76.16       47.04       
C           151.04      75.44       45.68       
C           149.82      75.84       45.11       
C           145.82      78.11       47.38       
C           145.9       78.77       48.75       
C           147.17      78.44       49.33       
C           151.92      74.73       44.92       
C           151.46      74.35       43.62       
C           150.29      74.84       43.07       
C           149.38      75.48       43.92       
C           144.94      79.3        49.53       
C           145.13      79.44       50.96       
C           146.41      79.25       51.47       
C           147.4       78.73       50.63       
C           151.7       75.22       48.21       
C           152.39      77.22       46.82       
C           144.84      76.95       47.33       
C           145.36      79.09       46.29       
H           147.15      76.8        45.22       
H           149.99      77.5        49.22       
H           143.97      79.51       49.09       
H           148.39      78.5        51.04       
H           152.91      74.4        45.31       
H           148.36      75.65       43.6        
H           151.71      75.69       49.21       
H           152.68      74.82       47.94       
H           151.06905   74.33227    48.25402    
H           152.58      77.67       47.76       
H           153.26      76.62       46.54       
H           152.17335   77.94217    46.03283    
H           144.92      78.54       45.49       
H           144.49      79.57       46.68       
H           146.06787   79.8395     45.93607    
H           143.86      77.36       47.11       
H           144.92      76.29       46.41       
H           144.8053    76.29079    48.19738    
H           153.17      73.12       42.82       
H           143.16      79.89       51.78       
S           150.05      74.27       41.44       
C           152.17      73.49       42.73       
C           151.55      73.29       41.55       
C           143.04      80.84       57.22       
C           142.19      80.49       56.05       
C           144.33      80.86       56.95       
N           140.88      80.33       55.94       
N           141.82      79.62       54.08       
O           140.64      79.84       54.74       
H           145.95      80.68       55.55       
H           144.97      81.12       57.79       
C           144.88      80.63       55.64       
C           142.75      80.21       54.83       
C           144.13      80.3        54.5        
C           137.15      81.98       72.8        
C           136.8       81.07       71.86       
S           138.24      83.12       72.07       
C           138.61      81.16       66.05       
C           139.4       81.88       66.96       
C           140.43      82.7        66.48       
C           140.86      82.62       65.12       
C           140.22      81.71       64.27       
C           139.07      81.05       64.75       
C           142.12      83.17       64.5        
C           142.09      82.51       63.1        
C           140.93      81.68       63.0        
C           137.48      80.37       66.78       
C           137.71      80.85       68.22       
C           138.75      81.83       68.29       
C           142.93      82.52       62.02       
C           142.61      81.82       60.8        
C           141.36      81.13       60.76       
C           140.56      80.95       61.88       
C           137.02      80.56       69.38       
C           137.32      81.28       70.55       
C           138.27      82.38       70.53       
C           139.1       82.62       69.4        
C           143.32      82.77       65.42       
C           142.05      84.68       64.49       
C           137.61      78.84       66.52       
C           136.13      81.02       66.38       
H           138.57      80.36       64.12       
H           140.94      83.32       67.24       
H           136.26      79.8        69.4        
H           139.88      83.33       69.39       
H           143.79      83.16       62.08       
H           139.65      80.43       61.84       
H           144.09      83.43       65.35       
H           142.94      82.67       66.49       
H           143.68604   81.7817     65.14181    
H           142.29      85.21       65.42       
H           142.82      85.0        63.74       
H           141.02332   84.95282    64.24589    
H           135.43      80.66       67.11       
H           136.09      82.09       66.53       
H           135.77581   80.76499    65.38119    
H           137.31      78.51       65.49       
H           138.65      78.57       66.51       
H           137.11559   78.20433    67.25456    
H           144.23      82.2        59.4        
H           136.14      80.23       72.05       
S           141.12      80.39       59.21       
C           143.32      81.72       59.55       
C           142.64      81.08       58.58       
C           136.38      81.86       77.17       
C           136.42      80.73       76.36       
C           136.53      82.96       76.43       
N           136.23      79.43       76.7        
N           136.47      79.45       74.48       
O           136.33      78.65       75.56       
H           137.08      83.97       74.58       
H           136.54      83.89       76.94       
C           136.85      83.03       75.03       
C           136.6       80.73       74.91       
C           136.9       81.91       74.19       
C           135.54      78.4        93.47       
C           136.5       77.92       92.57       
S           134.76      79.77       92.77       
C           137.02      79.76       86.68       
C           136.19      80.6        87.46       
C           135.51      81.65       86.85       
C           135.79      81.91       85.53       
C           136.41      80.94       84.74       
C           137.12      79.87       85.26       
C           135.34      83.1        84.65       
C           135.79      82.69       83.22       
C           136.32      81.37       83.35       
C           137.8       78.8        87.61       
C           137.04      79.01       88.94       
C           136.1       80.13       88.87       
C           135.75      83.28       81.98       
C           136.0       82.53       80.85       
C           136.52      81.21       81.01       
C           136.74      80.63       82.23       
C           137.17      78.27       90.11       
C           136.49      78.6        91.31       
C           135.59      79.68       91.21       
C           135.38      80.43       90.03       
C           136.03      84.39       85.21       
C           133.75      83.21       84.76       
C           139.29      79.17       87.75       
C           137.52      77.33       87.14       
H           137.81      79.31       84.55       
H           135.01      82.33       87.45       
H           137.87      77.43       90.12       
H           134.68      81.3        89.97       
H           135.37      84.36       81.9        
H           137.23      79.65       82.4        
H           136.0       84.51       86.3        
H           137.08      84.42       85.05       
H           135.67323   85.3274     84.78327    
H           133.45      83.71       85.65       
H           133.33      83.83       83.97       
H           133.21882   82.2583     84.74524    
H           137.68      76.62       87.93       
H           136.45      77.34       86.96       
H           138.05224   76.96365    86.26215    
H           139.96      78.99       86.9        
H           139.78      78.59       88.55       
H           139.46791   80.21614    87.99908    
H           135.69      83.89       79.11       
H           137.19      77.1        92.84       
S           136.79      80.38       79.51       
C           135.9       82.87       79.48       
C           136.24      81.85       78.67       
C           134.16      76.65       97.32       
C           135.3       76.14       96.55       
C           133.62      77.77       96.79       
N           136.02      75.06       96.78       
N           136.64      75.86       94.78       
O           136.9       74.98       95.77       
H           133.59      79.13       95.23       
H           132.71      78.2        97.2        
C           134.14      78.35       95.59       
C           135.67      76.63       95.29       
C           135.08      77.83       94.76       
C           125.49      69.24       109.14      
C           125.35      70.51       108.71      
S           126.99      68.53       108.45      
C           129.24      73.56       105.18      
C           129.63      72.26       105.55      
C           130.93      71.74       105.05      
C           131.6       72.45       104.02      
C           131.04      73.73       103.66      
C           129.91      74.25       104.24      
C           132.99      72.21       103.41      
C           132.97      73.35       102.43      
C           131.82      74.24       102.53      
C           127.91      73.98       105.79      
C           127.61      72.63       106.52      
C           128.67      71.66       106.4       
C           133.93      73.65       101.48      
C           133.58      74.67       100.53      
C           132.48      75.52       100.61      
C           131.57      75.32       101.67      
C           126.56      72.31       107.31      
C           126.44      71.05       107.93      
C           127.43      70.06       107.69      
C           128.58      70.41       106.93      
C           133.04      70.88       102.75      
C           134.16      72.27       104.41      
C           126.7       74.26       104.83      
C           128.13      75.07       106.91      
H           129.53      75.12       103.74      
H           131.3       70.78       105.33      
H           125.77      73.03       107.43      
H           129.4       69.64       106.74      
H           134.83      72.96       101.39      
H           130.64      75.94       101.79      
H           134.03      70.79       102.28      
H           133.01      70.02       103.45      
H           132.21176   70.69929    102.06482   
H           133.77      71.68       105.2       
H           135.1       71.96       104.02      
H           134.36792   73.27496    104.77733   
H           127.31      74.96       107.65      
H           129.04      74.8        107.44      
H           128.21657   76.12326    106.64308   
H           126.97      75.04       104.18      
H           125.82      74.64       105.39      
H           126.39005   73.34392    104.32719   
H           135.11      74.4        99.03       
H           124.65      71.2        109.16      
S           132.48      76.82       99.42       
C           134.34      75.05       99.36       
C           133.78      76.1        98.59       
C           122.91      67.13       112.12      
C           122.73      68.52       111.82      
C           124.03      66.61       111.61      
N           121.8       69.38       112.29      
N           122.91      70.27       110.53      
O           121.87      70.42       111.43      
H           125.67      66.73       110.28      
H           124.33      65.61       111.83      
C           124.84      67.29       110.62      
C           123.5       69.11       110.74      
C           124.63      68.52       110.12      
C           111.53      59.92       121.63      
C           112.26      59.28       120.74      
S           112.1       61.64       121.87      
C           116.21      61.9        117.02      
C           115.73      62.72       118.1       
C           116.16      64.08       118.27      
C           117.25      64.5        117.46      
C           117.75      63.64       116.5       
C           117.15      62.41       116.17      
C           118.07      65.73       117.57      
C           119.11      65.56       116.53      
C           118.89      64.32       115.84      
C           115.69      60.42       117.19      
C           114.91      60.63       118.41      
C           114.87      61.89       118.93      
C           120.07      66.43       116.2       
C           120.79      66.17       114.98      
C           120.52      64.96       114.29      
C           119.67      63.98       114.73      
C           114.19      59.63       119.08      
C           113.32      60.04       120.09      
C           113.3       61.37       120.58      
C           114.17      62.31       120.06      
C           118.81      65.87       118.95      
C           117.29      66.99       117.19      
C           116.84      59.45       117.52      
C           114.75      59.92       116.05      
H           117.51      61.79       115.37      
H           115.8       64.68       119.07      
H           114.05      58.59       118.69      
H           114.27      63.3        120.52      
H           120.29      67.34       116.81      
H           119.49      63.12       114.16      
H           118.04      65.85       119.75      
H           119.31      66.78       119.13      
H           119.60129   65.14693    119.14782   
H           117.08      66.82       116.14      
H           118.01      67.81       117.23      
H           116.3723    67.25014    117.7175    
H           114.58      58.82       116.12      
H           113.78      60.32       116.1       
H           115.15606   60.12659    115.05978   
H           117.27      59.17       116.62      
H           116.57      58.47       117.98      
H           117.698     59.8647     118.0491    
H           122.06      67.97       114.65      
H           112.05      58.27       120.57      
S           121.58      64.8        112.87      
C           121.74      66.96       114.36      
C           122.18      66.44       113.17      
C           108.03      58.45       123.85      
C           108.25      58.11       122.45      
C           108.96      59.37       124.36      
N           107.51      57.42       121.58      
N           109.24      58.14       120.43      
O           108.14      57.32       120.41      
H           110.9       60.38       124.07      
H           108.87      59.72       125.45      
C           110.15      59.77       123.62      
C           109.39      58.59       121.71      
C           110.36      59.41       122.37      
C           94.08       54.47       132.21      
C           95.23       54.61       132.86      
S           94.42       54.62       130.43      
C           100.57      56.18       130.17      
C           99.47       56.1        129.34      
C           99.5        56.14       127.94      
C           100.67      56.56       127.35      
C           101.83      56.73       128.15      
C           101.76      56.52       129.49      
C           100.91      56.86       125.93      
C           102.4       57.03       126.03      
C           102.97      56.96       127.33      
C           100.11      55.89       131.61      
C           98.67       55.44       131.5       
C           98.33       55.67       130.18      
C           103.2       57.37       124.96      
C           104.62      57.64       125.14      
C           105.17      57.35       126.39      
C           104.35      57.1        127.48      
C           97.78       55.14       132.52      
C           96.41       54.94       132.08      
C           96.07       55.11       130.73      
C           96.98       55.61       129.78      
C           100.07      58.11       125.51      
C           100.7       55.63       124.97      
C           100.3       57.18       132.46      
C           100.82      54.67       132.22      
H           102.73      56.66       130.0       
H           98.64       55.99       127.33      
H           98.05       55.2        133.56      
H           96.65       55.72       128.74      
H           102.67      57.55       123.97      
H           104.8       56.93       128.48      
H           99.53       58.02       124.55      
H           99.25       58.23       126.18      
H           100.6296    59.04512    125.53209   
H           99.61       55.26       124.83      
H           101.04      55.92       123.95      
H           101.25002   54.73446    125.25911   
H           100.36      54.5        133.19      
H           100.63      53.74       131.64      
H           101.90636   54.7481     132.2626    
H           101.32      57.32       132.69      
H           99.83       56.98       133.43      
H           99.83191    58.08737    132.07833   
H           105.52      58.11       123.11      
H           95.25       54.56       133.9       
S           106.94      57.54       126.34      
C           105.68      57.95       124.18      
C           106.95      58.07       124.69      
C           89.95       53.53       133.59      
C           91.01       53.96       134.47      
C           90.46       53.39       132.33      
N           90.87       54.3        135.74      
N           93.02       54.68       135.11      
O           92.14       54.69       136.17      
H           91.9        53.72       130.8       
H           89.77       53.17       131.48      
C           91.76       53.74       131.86      
C           92.38       54.29       134.06      
C           92.75       54.18       132.7       
H           160.89      7.34        -10.21      
H           88.85       53.79       133.76      
