612

C           167.17      30.77       41.9        
C           166.65      29.55       42.14       
S           168.42      30.61       40.64       
C           168.4       24.49       39.16       
C           168.99      25.68       38.72       
C           169.87      25.76       37.62       
C           170.13      24.57       37.0        
C           169.45      23.35       37.32       
C           168.64      23.3        38.49       
C           170.81      24.36       35.61       
C           170.59      22.89       35.36       
C           169.76      22.32       36.28       
C           167.35      24.72       40.27       
C           167.49      26.27       40.47       
C           168.44      26.72       39.59       
C           171.04      22.1        34.23       
C           170.5       20.81       33.99       
C           169.65      20.27       34.96       
C           169.21      21.0        36.08       
C           166.85      27.07       41.43       
C           167.16      28.43       41.43       
C           168.28      28.86       40.58       
C           168.93      28.03       39.64       
C           172.31      24.66       35.63       
C           170.17      25.12       34.48       
C           167.8       24.07       41.64       
C           165.89      24.4        39.91       
H           168.07      22.4        38.8        
H           170.3       26.71       37.27       
H           166.03      26.67       42.03       
H           169.67      28.27       38.9        
H           171.7       22.37       33.43       
H           168.63      20.5        36.84       
H           172.38      25.59       36.15       
H           172.74      24.79       34.58       
H           172.91175   23.83879    36.01937    
H           169.12      24.93       34.5        
H           170.53      24.84       33.51       
H           170.25727   26.20355    34.55999    
H           165.26      25.15       40.43       
H           165.75      24.58       38.85       
H           165.52145   23.39358    40.10845    
H           168.07      23.0        41.57       
H           166.89      23.97       42.27       
H           168.62857   24.60822    42.10032    
H           171.25      20.3        32.01       
H           165.86      29.43       42.87       
S           169.08      18.68       34.34       
C           170.7       19.94       32.87       
C           170.01      18.75       32.88       
C           166.28      34.88       43.3        
C           165.75      33.75       43.93       
C           167.1       34.56       42.17       
N           164.93      33.66       45.03       
N           165.45      31.55       44.3        
O           164.73      32.3        45.19       
H           167.97      33.21       40.81       
H           167.47      35.38       41.51       
C           167.34      33.23       41.75       
C           165.99      32.39       43.47       
C           166.89      32.13       42.36       
C           166.69      48.39       52.83       
C           167.7       48.02       51.9        
S           165.4       47.2        52.74       
C           166.97      43.63       47.72       
C           165.89      43.72       48.66       
C           164.85      42.81       48.63       
C           164.86      41.71       47.69       
C           166.01      41.6        46.87       
C           167.07      42.46       46.92       
C           163.75      40.7        47.3        
C           164.57      39.83       46.3        
C           165.9       40.33       46.13       
C           167.99      44.71       48.01       
C           167.5       45.19       49.39       
C           166.17      44.79       49.63       
C           164.12      38.59       45.72       
C           165.07      37.87       45.02       
C           166.31      38.43       44.9        
C           166.82      39.64       45.4        
C           168.13      46.16       50.14       
C           167.35      46.84       51.14       
C           166.05      46.35       51.36       
C           165.45      45.31       50.65       
C           162.59      41.39       46.57       
C           163.25      39.76       48.36       
C           167.97      45.89       47.06       
C           169.4       43.98       48.12       
H           167.88      42.42       46.25       
H           164.1       42.78       49.44       
H           169.08      46.62       49.83       
H           164.44      44.93       51.04       
H           163.13      38.22       45.78       
H           167.86      39.95       45.22       
H           161.87      41.85       47.24       
H           161.98      40.71       45.94       
H           162.92514   42.14406    45.85783    
H           163.96      38.98       48.59       
H           162.38      39.26       47.87       
H           162.87455   40.22046    49.27384    
H           170.05      44.47       48.81       
H           169.25      42.93       48.57       
H           169.93995   43.82771    47.18546    
H           168.84      46.51       47.07       
H           167.95      45.58       46.04       
H           167.16011   46.6013     47.22198    
H           164.01      36.05       44.61       
H           168.66      48.61       51.82       
S           167.29      37.38       43.89       
C           164.86      36.63       44.39       
C           165.98      36.21       43.75       
C           166.1       51.07       56.35       
C           167.37      51.13       55.65       
C           165.18      50.3        55.74       
N           168.5       51.82       55.83       
N           168.76      50.43       53.99       
O           169.35      51.35       54.86       
H           164.46      48.89       54.27       
H           164.2       50.25       56.21       
C           165.35      49.47       54.55       
C           167.56      50.24       54.5        
C           166.59      49.31       53.94       
C           164.05      52.11       72.46       
C           165.29      52.2        71.91       
S           162.79      52.54       71.32       
C           166.33      53.3        66.07       
C           164.97      53.33       66.53       
C           163.94      53.4        65.57       
C           164.22      53.29       64.22       
C           165.55      53.19       63.77       
C           166.66      53.2        64.72       
C           163.27      53.32       63.1        
C           164.19      53.1        61.9        
C           165.53      52.86       62.33       
C           167.31      53.29       67.25       
C           166.28      53.08       68.44       
C           164.95      53.31       68.0        
C           163.83      52.81       60.57       
C           164.81      52.48       59.64       
C           166.13      52.23       60.05       
C           166.5       52.49       61.43       
C           166.46      52.74       69.75       
C           165.38      52.57       70.59       
C           164.1       52.95       70.14       
C           163.87      53.34       68.84       
C           162.4       54.66       63.05       
C           162.31      52.12       63.13       
C           168.23      54.55       67.34       
C           168.29      52.1        67.1        
H           167.69      53.05       64.27       
H           162.85      53.36       65.86       
H           167.46      52.53       70.1        
H           162.82      53.56       68.58       
H           162.76      52.92       60.24       
H           167.55      52.39       61.6        
H           161.4       54.52       62.63       
H           162.02      54.9        64.01       
H           162.89137   55.51989    62.59476    
H           161.79      52.24       64.07       
H           161.6       52.12       62.3        
H           162.77714   51.13541    63.10844    
H           168.92      52.29       66.25       
H           168.77      51.91       68.06       
H           167.69587   51.21606    66.86815    
H           168.95      54.56       66.57       
H           167.66      55.46       67.17       
H           168.69436   54.67664    68.31797    
H           163.77      52.03       57.77       
H           166.18      51.9        72.49       
S           167.22      51.76       58.75       
C           164.67      52.12       58.23       
C           165.87      51.8        57.59       
C           162.77      50.47       76.47       
C           164.13      50.81       76.17       
C           161.97      50.63       75.39       
N           165.16      50.8        76.94       
N           165.87      51.49       74.91       
O           166.23      51.12       76.14       
H           161.67      51.07       73.38       
H           160.95      50.2        75.44       
C           162.42      51.15       74.14       
C           164.57      51.39       74.87       
C           163.65      51.6        73.79       
C           155.54      42.24       89.11       
C           154.97      43.2        88.35       
S           157.32      42.11       88.81       
C           157.77      46.16       83.88       
C           158.65      45.55       84.78       
C           160.03      45.61       84.52       
C           160.51      46.49       83.55       
C           159.6       46.87       82.55       
C           158.26      46.67       82.74       
C           161.93      46.83       83.19       
C           161.72      47.61       81.91       
C           160.32      47.58       81.49       
C           156.35      46.18       84.47       
C           156.49      45.28       85.67       
C           157.86      44.96       85.88       
C           162.66      48.18       81.08       
C           162.25      48.69       79.79       
C           160.84      48.62       79.45       
C           159.86      48.01       80.21       
C           155.46      44.65       86.38       
C           155.83      43.75       87.42       
C           157.22      43.47       87.7        
C           158.24      44.01       86.94       
C           162.79      45.59       82.89       
C           162.58      47.58       84.33       
C           155.33      45.68       83.41       
C           155.93      47.72       84.86       
H           157.57      47.01       82.01       
H           160.74      45.23       85.24       
H           154.45      44.85       86.23       
H           159.22      43.67       87.01       
H           163.68      48.25       81.3        
H           158.86      47.88       79.87       
H           163.8       45.94       82.61       
H           162.91      44.91       83.76       
H           162.41038   45.01353    82.04639    
H           162.16      47.4        85.3        
H           163.63      47.3        84.42       
H           162.67475   48.66283    84.24879    
H           155.39      48.25       84.15       
H           155.29      47.58       85.78       
H           156.7226    48.3653     85.23877    
H           155.4       46.31       82.52       
H           154.37      45.94       83.8        
H           155.43869   44.61347    83.213      
H           164.07      49.62       78.83       
H           153.92      43.48       88.37       
S           160.53      49.4        77.91       
C           163.0       49.39       78.75       
C           162.23      49.84       77.7        
C           153.92      40.02       92.39       
C           153.3       41.25       91.91       
C           155.0       39.64       91.63       
N           152.17      41.83       92.28       
N           152.87      42.93       90.43       
O           151.85      42.92       91.39       
H           156.46      40.02       90.01       
H           155.49      38.69       91.71       
C           155.58      40.42       90.6        
C           153.74      41.97       90.81       
C           154.97      41.56       90.2        
C           149.98      28.53       103.02      
C           150.6       28.28       101.85      
S           149.24      30.12       103.08      
C           150.75      32.3        97.23       
C           150.15      32.76       98.45       
C           149.58      34.0        98.68       
C           149.91      34.97       97.72       
C           150.63      34.56       96.52       
C           150.95      33.21       96.25       
C           149.9       36.48       97.81       
C           150.52      36.84       96.51       
C           151.04      35.74       95.84       
C           151.16      30.78       97.29       
C           150.95      30.56       98.83       
C           150.2       31.64       99.41       
C           150.9       38.1        96.07       
C           151.86      38.25       95.09       
C           152.45      37.05       94.53       
C           152.03      35.79       94.91       
C           151.24      29.45       99.61       
C           150.64      29.4        100.97      
C           149.93      30.47       101.46      
C           149.72      31.57       100.7       
C           150.76      37.14       98.99       
C           148.42      36.99       97.81       
C           152.61      30.73       96.85       
C           150.29      29.94       96.41       
H           151.44      32.94       95.38       
H           149.24      34.29       99.69       
H           151.6       28.58       99.07       
H           149.06      32.31       101.18      
H           150.54      39.08       96.42       
H           152.36      34.87       94.39       
H           150.14      36.98       99.86       
H           150.94      38.19       98.83       
H           151.73652   36.68133    99.14536    
H           147.9       36.47       98.62       
H           148.36      38.06       97.96       
H           147.95781   36.79501    96.84229    
H           150.62      29.96       95.35       
H           150.45      28.87       96.62       
H           149.23087   30.17916    96.50566    
H           152.73      31.2        95.89       
H           153.13      31.37       97.65       
H           153.02434   29.72273    96.80714    
H           152.1       40.42       94.59       
H           151.05      27.36       101.54      
S           153.48      37.49       93.17       
C           152.41      39.4        94.4        
C           153.34      39.16       93.41       
C           149.08      25.57       106.19      
C           148.78      26.9        106.36      
C           149.78      25.34       105.04      
N           148.24      27.53       107.37      
N           148.66      29.07       105.89      
O           148.19      28.89       107.16      
H           150.6       26.03       103.18      
H           150.03      24.34       104.7       
C           150.15      26.34       104.12      
C           149.08      27.88       105.37      
C           149.71      27.62       104.17      
C           146.6       12.27       116.0       
C           147.14      12.21       114.78      
S           146.05      13.87       116.42      
C           147.68      17.03       111.06      
C           147.07      17.33       112.31      
C           146.58      18.59       112.65      
C           146.86      19.64       111.82      
C           147.56      19.43       110.64      
C           147.88      18.14       110.17      
C           146.59      21.14       111.94      
C           147.28      21.78       110.69      
C           147.87      20.74       110.02      
C           148.26      15.61       110.93      
C           147.62      15.07       112.31      
C           147.05      16.09       113.13      
C           147.32      23.1        110.34      
C           147.96      23.34       109.08      
C           148.51      22.3        108.39      
C           148.55      21.0        108.81      
C           147.74      13.81       112.83      
C           147.23      13.46       114.09      
C           146.75      14.53       114.93      
C           146.61      15.84       114.46      
C           147.29      21.67       113.19      
C           145.1       21.46       111.93      
C           149.83      15.72       110.95      
C           147.8       14.76       109.7       
H           148.49      18.03       109.29      
H           145.99      18.69       113.55      
H           148.15      13.01       112.27      
H           146.16      16.65       115.05      
H           146.73      23.92       110.82      
H           149.0       20.21       108.26      
H           147.3       22.75       113.03      
H           146.8       21.56       114.19      
H           148.32243   21.35454    113.34056   
H           144.74      20.93       112.8       
H           144.76      22.41       112.21      
H           144.5987    21.07873    111.04037   
H           148.44      14.91       108.87      
H           147.82      13.73       109.97      
H           146.77708   14.99606    109.40672   
H           150.16      14.98       110.22      
H           150.18      16.62       110.47      
H           150.26948   15.66873    111.94616   
H           147.74      25.47       108.99      
H           147.61      11.35       114.29      
S           149.07      22.95       106.89      
C           148.09      24.6        108.49      
C           148.67      24.56       107.24      
C           145.69      9.14        118.8       
C           145.72      8.82        117.41      
C           145.99      10.42       119.07      
N           145.4       7.67        116.8       
N           146.0       9.15        115.25      
O           145.48      7.91        115.49      
H           146.49      12.3        118.62      
H           146.13      10.64       120.11      
C           146.34      11.31       118.17      
C           145.98      9.79        116.44      
C           146.34      11.13       116.87      
C           136.9       2.64        130.94      
C           136.58      2.43        129.64      
S           138.55      3.06        131.25      
C           140.24      4.61        125.36      
C           140.88      4.52        126.6       
C           142.23      5.03        126.78      
C           142.79      5.74        125.75      
C           142.15      5.67        124.44      
C           140.91      5.07        124.26      
C           144.05      6.58        125.7       
C           144.06      6.92        124.21      
C           142.98      6.37        123.5       
C           138.79      4.18        125.41      
C           138.74      3.52        126.76      
C           139.93      3.89        127.46      
C           144.98      7.68        123.5       
C           144.88      7.84        122.09      
C           143.8       7.17        121.45      
C           142.83      6.51        122.14      
C           137.66      2.95        127.34      
C           137.65      2.8         128.74      
C           138.81      3.15        129.49      
C           139.95      3.68        128.9       
C           145.3       5.79        126.21      
C           143.85      7.86        126.5       
C           138.49      3.13        124.31      
C           137.77      5.31        125.3       
H           140.47      5.0         123.28      
H           142.7       4.9         127.8       
H           136.68      2.72        126.83      
H           140.81      3.97        129.53      
H           145.9       8.0         124.02      
H           142.05      5.92        121.63      
H           145.97      6.32        126.86      
H           144.99      4.89        126.77      
H           145.91211   5.40113     125.39625   
H           143.27      7.52        127.31      
H           144.73      8.42        126.79      
H           143.22036   8.64705     126.08501   
H           137.34      5.36        124.25      
H           136.91      5.16        125.99      
H           138.11747   6.30173     125.58956   
H           138.7       3.6         123.33      
H           137.44      2.9         124.32      
H           139.05107   2.19731     124.36829   
H           146.64      9.02        121.45      
H           135.59      2.17        129.23      
S           143.8       7.51        119.74      
C           145.8       8.45        121.17      
C           145.29      8.35        119.92      
C           134.4       1.03        134.18      
C           134.94      2.39        134.24      
C           134.84      0.27        133.07      
N           135.0       3.32        135.23      
N           136.13      4.17        133.48      
O           135.47      4.45        134.68      
H           136.05      0.24        131.22      
H           134.57      -0.83       132.97      
C           135.67      0.91        132.03      
C           135.79      2.94        133.2       
C           136.11      2.15        132.09      
C           122.48      -5.38       143.2       
C           122.88      -5.82       142.03      
S           123.59      -4.07       143.75      
C           128.04      -4.07       139.24      
C           127.71      -3.4        140.39      
C           128.43      -2.38       140.93      
C           129.52      -1.94       140.22      
C           129.81      -2.63       139.01      
C           129.24      -3.8        138.56      
C           130.39      -0.64       140.45      
C           131.14      -0.61       139.11      
C           130.88      -1.84       138.44      
C           127.01      -5.16       138.92      
C           125.97      -5.01       140.03      
C           126.41      -3.91       140.88      
C           131.96      0.42        138.59      
C           132.49      0.18        137.32      
C           132.31      -1.12       136.67      
C           131.51      -2.12       137.29      
C           124.81      -5.68       140.31      
C           124.09      -5.31       141.45      
C           124.56      -4.22       142.29      
C           125.67      -3.49       141.96      
C           131.33      -0.63       141.67      
C           129.41      0.54        140.64      
C           127.68      -6.55       139.0       
C           126.31      -4.97       137.52      
H           129.42      -4.26       137.65      
H           128.01      -1.86       141.81      
H           124.37      -6.34       139.56      
H           125.89      -2.61       142.55      
H           132.14      1.35        139.07      
H           131.46      -3.07       136.72      
H           132.28      -0.16       141.55      
H           130.7       -0.19       142.5       
H           131.63541   -1.61895    142.01177   
H           128.81      0.48        141.53      
H           129.97      1.42        140.74      
H           128.65035   0.56867     139.85885   
H           127.07      -4.95       136.74      
H           125.8       -5.82       137.23      
H           125.75671   -4.03087    137.52      
H           128.57      -6.49       138.38      
H           127.08      -7.37       138.54      
H           127.94093   -6.79643    140.02922   
H           133.65      2.06        136.78      
H           122.39      -6.62       141.53      
S           133.05      -1.14       135.1       
C           133.32      1.01        136.5       
C           133.7       0.46        135.34      
C           118.5       -6.04       145.04      
C           119.71      -5.95       145.84      
C           118.74      -5.9        143.73      
N           119.86      -5.98       147.22      
N           121.88      -5.8        146.23      
O           121.19      -5.84       147.36      
H           120.16      -5.6        142.04      
H           117.91      -5.88       143.0       
C           120.09      -5.79       143.11      
C           121.01      -5.78       145.26      
C           121.21      -5.68       143.9       
C           102.48      -8.03       149.06      
C           103.0       -7.97       147.78      
S           103.63      -7.46       150.24      
C           108.78      -6.96       146.45      
C           108.53      -6.94       147.87      
C           109.5       -6.79       148.84      
C           110.85      -6.66       148.35      
C           111.14      -6.66       146.96      
C           110.11      -6.79       146.02      
C           112.16      -6.75       149.16      
C           113.12      -6.59       147.98      
C           112.51      -6.48       146.69      
C           107.56      -7.47       145.67      
C           106.52      -7.33       146.71      
C           107.09      -7.14       148.02      
C           114.46      -6.48       148.13      
C           115.25      -6.25       146.99      
C           114.66      -6.27       145.75      
C           113.28      -6.25       145.54      
C           105.16      -7.6        146.56      
C           104.4       -7.67       147.66      
C           104.97      -7.41       149.02      
C           106.34      -7.14       149.2       
C           112.38      -8.11       149.84      
C           112.46      -5.6        150.18      
C           107.62      -8.94       145.23      
C           107.26      -6.49       144.42      
H           110.37      -6.62       144.94      
H           109.28      -6.8        149.92      
H           104.81      -7.73       145.58      
H           106.75      -7.01       150.21      
H           114.91      -6.5        149.1       
H           112.79      -6.03       144.6       
H           111.62      -8.29       150.68      
H           113.38      -8.11       150.22      
H           112.34513   -8.97481    149.17744   
H           112.38      -4.62       149.69      
H           113.5       -5.71       150.54      
H           111.81568   -5.47963    151.0509    
H           107.74      -6.84       143.56      
H           106.18      -6.41       144.34      
H           107.67994   -5.49083    144.53585   
H           108.35      -9.14       144.44      
H           106.62      -9.17       144.87      
H           107.96842   -9.62263    146.00506   
H           117.43      -6.13       147.71      
H           102.4       -8.34       146.95      
S           115.86      -6.08       144.49      
C           116.68      -6.11       146.86      
C           117.14      -6.06       145.59      
C           98.28       -8.45       150.32      
C           98.65       -8.89       148.99      
C           99.29       -7.99       151.09      
N           97.96       -9.35       147.95      
N           100.13      -9.14       147.35      
O           98.89       -9.56       146.96      
H           101.33      -7.3        151.32      
H           99.03       -7.51       152.04      
C           100.66      -7.92       150.71      
C           100.05      -8.75       148.58      
C           101.09      -8.34       149.48      
C           85.03       -10.29      159.37      
C           85.74       -9.13       159.3       
S           85.31       -11.24      157.88      
C           89.88       -7.88       155.21      
C           89.01       -8.86       154.72      
C           89.25       -9.63       153.55      
C           90.48       -9.43       152.95      
C           91.28       -8.36       153.36      
C           90.94       -7.46       154.41      
C           91.18       -10.33      151.95      
C           92.45       -9.43       151.73      
C           92.51       -8.39       152.69      
C           89.52       -7.41       156.61      
C           88.15       -8.06       156.71      
C           87.97       -9.07       155.8       
C           93.54       -9.77       150.94      
C           94.74       -9.1        151.13      
C           94.76       -7.97       152.04      
C           93.68       -7.6        152.84      
C           87.48       -8.03       157.89      
C           86.57       -8.98       158.15      
C           86.37       -10.0       157.21      
C           87.05       -10.07      155.96      
C           90.26       -10.38      150.73      
C           91.52       -11.72      152.49      
C           89.51       -5.87       156.73      
C           90.62       -7.97       157.63      
H           91.61       -6.69       154.69      
H           88.73       -10.52      153.34      
H           87.62       -7.19       158.65      
H           86.95       -10.9       155.34      
H           93.43       -10.58      150.2       
H           93.75       -6.82       153.6       
H           89.43       -10.98      150.96      
H           89.81       -9.39       150.61      
H           90.67099    -10.71564   149.77788   
H           90.48       -12.18      152.65      
H           92.03       -12.43      151.78      
H           91.94812    -11.76834   153.49124   
H           91.57       -7.53       157.35      
H           90.42       -7.59       158.58      
H           90.71337    -9.05447    157.57254   
H           90.5        -5.4        157.02      
H           88.91       -5.72       157.66      
H           89.03304    -5.328      155.91339   
H           96.08       -10.06      149.69      
H           85.62       -8.34       160.0       
S           96.4        -7.28       152.01      
C           95.97       -9.35       150.51      
C           96.95       -8.54       150.9       
C           82.26       -11.01      162.76      
C           82.34       -11.93      161.69      
C           83.1        -9.97       162.66      
N           81.58       -13.01      161.48      
N           83.08       -12.79      159.8       
O           82.1        -13.57      160.35      
H           84.6        -8.95       161.57      
H           83.21       -9.21       163.43      
C           83.99       -9.81       161.56      
C           83.24       -11.75      160.55      
C           84.1        -10.64      160.45      
H           170.14      17.93       32.11       
H           81.52       -11.11      163.53      
