612

C           129.86      17.35       2.22        
C           128.86      18.27       2.21        
S           131.16      17.92       3.24        
C           129.87      24.11       3.54        
C           130.91      23.19       3.8         
C           132.15      23.65       4.32        
C           132.44      25.02       4.27        
C           131.43      25.95       3.85        
C           130.11      25.45       3.59        
C           133.81      25.69       4.4         
C           133.51      27.14       3.97        
C           132.09      27.3        3.76        
C           128.64      23.4        2.97        
C           129.11      21.95       3.02        
C           130.45      21.84       3.53        
C           134.35      28.21       3.95        
C           133.84      29.49       3.67        
C           132.45      29.53       3.38        
C           131.55      28.55       3.49        
C           128.55      20.82       2.5         
C           129.17      19.56       2.74        
C           130.43      19.49       3.36        
C           131.12      20.63       3.76        
C           134.87      25.08       3.49        
C           134.06      25.85       5.92        
C           128.24      23.66       1.43        
C           127.5       23.52       3.91        
H           129.28      26.15       3.31        
H           132.96      22.97       4.59        
H           127.55      20.93       2.02        
H           132.16      20.59       4.14        
H           135.44      28.14       4.19        
H           130.52      28.69       3.33        
H           135.28      24.22       4.03        
H           135.7       25.76       3.37        
H           134.51328   24.79608    2.49993     
H           133.08      26.21       6.34        
H           134.73      26.69       6.04        
H           134.41252   24.96869    6.45584     
H           126.83      22.67       3.98        
H           127.96      23.54       4.84        
H           126.81113   24.35956    3.81672     
H           127.92      24.68       1.4         
H           127.37      23.12       1.12        
H           129.06549   23.50045    0.73631     
H           135.58      30.89       3.83        
H           128.07      18.19       1.49        
S           132.05      31.17       2.85        
C           134.55      30.74       3.51        
C           133.74      31.75       3.12        
C           130.36      13.51       0.0         
C           129.12      14.06       0.24        
C           131.38      14.22       0.69        
N           127.98      13.58       -0.16       
N           127.6       15.56       1.0         
O           127.07      14.41       0.34        
H           132.09      15.83       1.86        
H           132.35      13.96       0.52        
C           131.15      15.39       1.46        
C           128.88      15.31       1.0         
C           129.96      16.07       1.57        
C           134.87      5.39        -13.75      
C           135.71      6.29        -13.22      
S           133.39      5.26        -12.87      
C           134.12      8.78        -7.7        
C           133.11      8.12        -8.42       
C           131.77      8.15        -7.92       
C           131.55      8.86        -6.71       
C           132.61      9.55        -6.05       
C           133.92      9.44        -6.48       
C           130.28      8.92        -5.91       
C           130.83      9.64        -4.68       
C           132.2       10.08       -4.74       
C           135.35      8.97        -8.6        
C           135.03      7.98        -9.78       
C           133.72      7.46        -9.56       
C           130.01      10.13       -3.73       
C           130.57      10.96       -2.77       
C           131.94      11.31       -2.82       
C           132.79      10.84       -3.76       
C           135.71      7.63        -10.89      
C           135.19      6.83        -11.88      
C           133.86      6.37        -11.62      
C           133.1       6.72        -10.51      
C           129.79      7.5         -5.45       
C           129.07      9.71        -6.47       
C           136.51      8.44        -7.78       
C           135.54      10.44       -8.92       
H           134.74      9.89        -5.91       
H           131.02      7.41        -8.28       
H           136.71      8.11        -11.03      
H           132.12      6.31        -10.42      
H           129.0       9.75        -3.62       
H           133.82      11.16       -3.83       
H           129.54      6.93        -6.34       
H           128.86      7.55        -4.97       
H           130.55641   6.94131     -4.9128     
H           129.24      10.83       -6.44       
H           128.23      9.68        -5.79       
H           128.70805   9.45246     -7.46537    
H           135.99      10.8        -7.95       
H           136.14      10.52       -9.69       
H           134.57612   10.91832    -9.09393    
H           136.63      9.05        -6.84       
H           136.24      7.5         -7.38       
H           137.50611   8.40442     -8.22113    
H           128.88      11.43       -1.5        
H           136.72      6.4         -13.6       
S           132.39      12.43       -1.55       
C           129.89      11.68       -1.72       
C           130.72      12.43       -0.93       
C           135.65      2.35        -16.78      
C           136.42      3.54        -16.78      
C           134.7       2.29        -15.89      
N           137.3       4.07        -17.62      
N           136.8       5.74        -16.15      
O           137.57      5.3         -17.19      
H           133.68      2.89        -14.24      
H           134.02      1.45        -15.96      
C           134.38      3.28        -14.97      
C           136.07      4.64        -15.9       
C           135.09      4.48        -14.86      
C           139.92      -11.98      -23.74      
C           138.84      -11.87      -22.93      
S           140.77      -10.51      -24.03      
C           136.82      -6.42       -21.06      
C           138.04      -6.36       -21.79      
C           138.73      -5.19       -21.88      
C           138.17      -4.05       -21.3       
C           136.88      -4.11       -20.73      
C           136.22      -5.34       -20.62      
C           138.86      -2.79       -21.05      
C           137.79      -2.08       -20.29      
C           136.63      -2.79       -20.13      
C           136.6       -7.84       -20.53      
C           137.38      -8.6        -21.63      
C           138.4       -7.75       -22.15      
C           138.0       -0.88       -19.64      
C           136.99      -0.3        -18.94      
C           135.78      -0.97       -18.85      
C           135.6       -2.28       -19.31      
C           137.53      -9.97       -21.87      
C           138.57      -10.48      -22.58      
C           139.59      -9.56       -23.11      
C           139.42      -8.21       -23.01      
C           138.96      -2.13       -22.51      
C           140.3       -2.82       -20.38      
C           135.17      -8.43       -20.65      
C           137.25      -8.11       -19.13      
H           135.31      -5.43       -20.01      
H           139.75      -5.22       -22.25      
H           136.84      -10.72      -21.5       
H           140.15      -7.56       -23.45      
H           138.94      -0.3        -19.77      
H           134.67      -2.83       -19.06      
H           139.81      -1.46       -22.45      
H           139.08      -2.85       -23.32      
H           138.07965   -1.56715    -22.82029   
H           140.87      -3.62       -20.84      
H           140.66      -1.87       -20.61      
H           140.16898   -3.02381    -19.31727   
H           137.22      -9.17       -18.78      
H           138.33      -7.92       -19.17      
H           136.83227   -7.54822    -18.29453   
H           135.15      -9.53       -20.5       
H           134.52      -8.09       -19.84      
H           134.69438   -8.3111     -21.62353   
H           137.81      1.67        -18.31      
H           138.16      -12.7       -22.67      
S           134.68      -0.02       -17.88      
C           136.94      1.03        -18.42      
C           135.89      1.22        -17.59      
C           141.3       -15.62      -25.76      
C           139.93      -15.32      -25.48      
C           142.06      -14.65      -25.4       
N           138.89      -16.02      -25.99      
N           138.04      -14.36      -24.76      
O           137.73      -15.49      -25.52      
H           142.41      -12.8       -24.53      
H           143.1       -14.73      -25.67      
C           141.64      -13.4       -24.82      
C           139.35      -14.21      -24.81      
C           140.28      -13.15      -24.5       
C           150.25      -28.37      -31.28      
C           150.53      -27.71      -30.09      
S           148.77      -27.84      -32.02      
C           147.03      -23.22      -28.06      
C           146.49      -24.02      -29.11      
C           145.22      -23.67      -29.63      
C           144.53      -22.58      -29.17      
C           145.08      -21.84      -28.09      
C           146.3       -22.18      -27.48      
C           143.15      -22.07      -29.38      
C           143.01      -20.86      -28.51      
C           144.15      -20.8       -27.67      
C           148.45      -23.7       -27.71      
C           148.46      -24.92      -28.58      
C           147.41      -25.02      -29.49      
C           142.05      -19.89      -28.45      
C           142.22      -18.86      -27.57      
C           143.38      -18.81      -26.74      
C           144.27      -19.79      -26.68      
C           149.49      -25.83      -28.68      
C           149.49      -26.78      -29.74      
C           148.46      -26.79      -30.69      
C           147.35      -25.92      -30.58      
C           142.26      -23.24      -28.93      
C           142.75      -21.77      -30.85      
C           148.51      -24.2       -26.24      
C           149.63      -22.84      -28.07      
H           146.8       -21.61      -26.65      
H           144.74      -24.15      -30.49      
H           150.33      -25.96      -27.93      
H           146.54      -25.84      -31.31      
H           141.1       -19.96      -29.04      
H           145.18      -19.59      -26.04      
H           142.48      -24.04      -29.62      
H           142.55      -23.43      -27.86      
H           141.18778   -23.05201   -28.9857    
H           142.65      -22.69      -31.31      
H           141.78      -21.37      -30.9       
H           143.53527   -21.32232   -31.45913   
H           150.5       -23.01      -27.4       
H           149.93      -22.9       -29.08      
H           149.38334   -21.78287   -28.16867   
H           148.2       -23.37      -25.66      
H           149.45      -24.5       -25.84      
H           147.75758   -24.94526   -25.98203   
H           140.41      -17.55      -27.58      
H           151.45      -27.9       -29.57      
S           143.48      -17.28      -25.83      
C           141.4       -17.72      -27.26      
C           141.89      -16.79      -26.46      
C           152.94      -31.41      -32.9       
C           151.8       -31.05      -33.58      
C           153.23      -30.68      -31.78      
N           151.32      -31.57      -34.68      
N           149.89      -29.94      -33.98      
O           150.27      -30.85      -35.03      
H           152.74      -28.97      -30.47      
H           154.07      -30.95      -31.17      
C           152.43      -29.57      -31.36      
C           150.93      -29.96      -33.11      
C           151.18      -29.28      -31.87      
C           157.79      -46.33      -36.17      
C           157.58      -45.55      -37.25      
S           158.43      -45.48      -34.8       
C           157.01      -39.48      -36.51      
C           157.62      -40.18      -35.44      
C           157.8       -39.62      -34.18      
C           157.24      -38.38      -33.97      
C           156.67      -37.66      -34.98      
C           156.54      -38.21      -36.31      
C           157.05      -37.65      -32.62      
C           156.37      -36.36      -33.07      
C           156.16      -36.37      -34.47      
C           156.96      -40.38      -37.77      
C           157.59      -41.71      -37.25      
C           157.81      -41.55      -35.87      
C           155.91      -35.32      -32.29      
C           155.12      -34.4       -32.95      
C           154.88      -34.41      -34.34      
C           155.44      -35.38      -35.15      
C           157.53      -43.02      -37.83      
C           157.7       -44.15      -36.98      
C           158.2       -43.91      -35.61      
C           158.29      -42.63      -35.06      
C           158.34      -37.29      -31.96      
C           156.27      -38.36      -31.52      
C           157.77      -39.68      -38.9       
C           155.5       -40.47      -38.2       
H           155.95      -37.65      -37.05      
H           158.2       -40.2       -33.31      
H           157.4       -43.14      -38.89      
H           158.59      -42.45      -34.03      
H           155.94      -35.31      -31.18      
H           155.32      -35.37      -36.2       
H           158.94      -38.2       -31.7       
H           158.13      -36.68      -31.11      
H           159.04684   -36.71039   -32.55374   
H           156.7       -39.38      -31.39      
H           156.45      -37.87      -30.59      
H           155.19224   -38.4643    -31.64516   
H           155.12      -39.5       -38.0       
H           155.47      -40.47      -39.3       
H           154.90918   -41.30127   -37.81528   
H           157.05      -39.04      -39.36      
H           158.46      -39.01      -38.39      
H           158.26189   -40.33826   -39.61613   
H           154.48      -33.11      -31.26      
H           157.25      -45.99      -38.22      
S           153.98      -32.98      -34.88      
C           154.46      -33.32      -32.33      
C           153.72      -32.55      -33.18      
C           157.3       -50.66      -35.43      
C           157.0       -50.1       -36.7       
C           157.89      -49.81      -34.51      
N           156.66      -50.72      -37.87      
N           156.55      -48.49      -38.12      
O           156.26      -49.71      -38.67      
H           158.79      -47.87      -34.06      
H           158.29      -50.27      -33.6       
C           158.1       -48.41      -34.78      
C           157.08      -48.69      -36.91      
C           157.66      -47.78      -35.95      
C           146.48      -62.38      -31.61      
C           147.16      -61.69      -30.68      
S           147.5       -62.37      -33.03      
C           151.9       -57.84      -31.74      
C           151.48      -58.61      -32.87      
C           152.04      -58.6       -34.14      
C           152.91      -57.63      -34.42      
C           153.34      -56.76      -33.35      
C           152.91      -56.87      -32.03      
C           153.63      -57.22      -35.75      
C           154.61      -56.17      -35.28      
C           154.39      -55.82      -33.88      
C           151.07      -58.23      -30.49      
C           150.08      -59.32      -31.07      
C           150.38      -59.54      -32.42      
C           155.44      -55.39      -36.06      
C           155.94      -54.16      -35.47      
C           155.68      -53.89      -34.09      
C           155.0       -54.73      -33.24      
C           149.14      -60.05      -30.43      
C           148.29      -60.93      -31.12      
C           148.62      -61.15      -32.45      
C           149.59      -60.49      -33.14      
C           152.61      -56.65      -36.76      
C           154.44      -58.32      -36.49      
C           150.22      -57.02      -30.06      
C           151.9       -58.82      -29.37      
H           153.35      -56.19      -31.21      
H           151.65      -59.3       -34.92      
H           148.96      -59.83      -29.33      
H           149.78      -60.76      -34.16      
H           155.62      -55.64      -37.1       
H           154.87      -54.46      -32.2       
H           153.04      -56.78      -37.77      
H           151.77      -57.34      -36.85      
H           152.3158    -55.6203    -36.55686   
H           153.79      -58.74      -37.24      
H           155.21      -57.81      -37.06      
H           154.87905   -59.12951   -35.90688   
H           151.33      -58.82      -28.45      
H           152.2       -59.83      -29.55      
H           152.82102   -58.27447   -29.16454   
H           150.07      -57.18      -28.97      
H           150.66      -56.08      -30.14      
H           149.29377   -56.83617   -30.60443   
H           156.81      -53.01      -37.09      
H           146.91      -61.78      -29.63      
S           156.52      -52.47      -33.55      
C           156.66      -53.04      -36.02      
C           157.04      -52.04      -35.18      
C           142.97      -65.05      -31.26      
C           143.41      -64.29      -30.15      
C           143.78      -64.95      -32.44      
N           142.81      -64.01      -28.99      
N           144.76      -62.84      -29.24      
O           143.76      -63.33      -28.36      
H           145.37      -63.94      -33.55      
H           143.48      -65.39      -33.37      
C           144.9       -64.08      -32.51      
C           144.55      -63.43      -30.38      
C           145.28      -63.26      -31.53      
C           130.7       -75.94      -32.69      
C           131.41      -75.41      -33.75      
S           131.35      -75.38      -31.15      
C           135.97      -71.53      -33.08      
C           135.23      -71.76      -31.9       
C           135.5       -71.1       -30.68      
C           136.45      -70.09      -30.72      
C           137.18      -69.86      -31.9       
C           136.89      -70.56      -33.1       
C           136.71      -68.95      -29.76      
C           137.95      -68.28      -30.44      
C           138.18      -68.84      -31.71      
C           135.43      -72.33      -34.3       
C           134.19      -72.98      -33.65      
C           134.22      -72.73      -32.22      
C           138.67      -67.21      -29.97      
C           139.75      -66.75      -30.73      
C           140.03      -67.36      -31.96      
C           139.2       -68.34      -32.56      
C           133.2       -73.8       -34.18      
C           132.42      -74.51      -33.33      
C           132.45      -74.37      -31.94      
C           133.3       -73.37      -31.37      
C           137.13      -69.62      -28.38      
C           135.55      -67.96      -29.61      
C           136.44      -73.39      -34.79      
C           134.92      -71.4       -35.37      
H           137.34      -70.25      -34.05      
H           134.93      -71.4       -29.83      
H           133.03      -73.82      -35.28      
H           133.29      -73.13      -30.31      
H           138.48      -66.74      -28.99      
H           139.38      -68.78      -33.53      
H           136.39      -70.31      -28.06      
H           137.95      -70.33      -28.73      
H           137.49943   -68.97176   -27.58539   
H           134.61      -68.55      -29.39      
H           135.89      -67.28      -28.77      
H           135.38745   -67.47234   -30.57118   
H           135.85      -70.81      -35.64      
H           134.61      -71.99      -36.18      
H           134.14873   -70.69242   -35.06574   
H           137.33      -72.9       -35.07      
H           136.07      -73.89      -35.68      
H           136.66348   -74.10368   -33.99702   
H           140.65      -65.15      -29.57      
H           131.12      -75.71      -34.78      
S           141.53      -66.7       -32.74      
C           140.71      -65.78      -30.46      
C           141.74      -65.7       -31.33      
C           127.28      -78.75      -33.46      
C           128.14      -78.91      -32.37      
C           127.75      -77.73      -34.29      
N           128.02      -79.85      -31.5       
N           129.69      -78.42      -30.84      
O           129.0       -79.6       -30.61      
H           129.1       -76.07      -34.62      
H           127.28      -77.58      -35.26      
C           128.82      -76.82      -33.92      
C           129.16      -77.95      -31.95      
C           129.6       -76.9       -32.81      
C           114.62      -84.83      -42.19      
C           115.83      -84.56      -42.74      
S           114.66      -84.72      -40.41      
C           120.61      -82.68      -39.14      
C           119.52      -83.24      -38.4       
C           119.5       -83.12      -36.99      
C           120.64      -82.75      -36.31      
C           121.74      -82.31      -37.11      
C           121.67      -82.18      -38.49      
C           121.03      -82.81      -34.85      
C           122.35      -81.95      -34.87      
C           122.73      -81.76      -36.21      
C           120.26      -82.63      -40.63      
C           119.0       -83.5       -40.72      
C           118.49      -83.66      -39.4       
C           123.12      -81.48      -33.78      
C           124.37      -81.01      -34.06      
C           124.66      -80.75      -35.45      
C           123.87      -81.08      -36.47      
C           118.2       -83.74      -41.89      
C           116.89      -84.3       -41.76      
C           116.38      -84.38      -40.44      
C           117.11      -84.09      -39.3       
C           121.4       -84.27      -34.52      
C           119.95      -82.19      -33.94      
C           121.35      -83.28      -41.46      
C           119.95      -81.12      -41.01      
H           122.44      -81.68      -39.04      
H           118.69      -83.42      -36.38      
H           118.48      -83.41      -42.86      
H           116.73      -84.29      -38.31      
H           122.86      -81.62      -32.72      
H           124.27      -80.81      -37.42      
H           120.54      -84.9       -34.66      
H           122.21      -84.56      -35.2       
H           121.82854   -84.3875    -33.52469   
H           119.02      -82.83      -33.88      
H           120.29      -82.0       -32.95      
H           119.67189   -81.16795   -34.19725   
H           119.45      -81.16      -42.0       
H           119.19      -80.66      -40.34      
H           120.80614   -80.46143   -41.15635   
H           122.25      -82.67      -41.62      
H           121.09      -83.35      -42.54      
H           121.73249   -84.22914   -41.08459   
H           125.09      -80.3       -32.14      
H           115.93      -84.44      -43.77      
S           126.13      -79.88      -35.63      
C           125.3       -80.37      -33.19      
C           126.2       -79.66      -33.91      
C           110.71      -86.11      -43.5       
C           111.9       -86.49      -44.18      
C           110.86      -85.28      -42.43      
N           112.08      -87.3       -45.2       
N           114.17      -86.54      -44.6       
O           113.45      -87.31      -45.45      
H           112.15      -84.13      -41.23      
H           109.99      -85.02      -41.77      
C           112.2       -84.86      -42.04      
C           113.21      -86.11      -43.78      
C           113.37      -85.23      -42.64      
C           94.62       -87.81      -45.93      
C           95.14       -87.09      -44.94      
S           95.77       -88.87      -46.68      
C           101.06      -87.46      -43.55      
C           100.66      -88.23      -44.63      
C           101.55      -88.81      -45.51      
C           102.92      -88.6       -45.31      
C           103.35      -87.82      -44.23      
C           102.42      -87.26      -43.27      
C           104.14      -88.81      -46.33      
C           105.25      -88.03      -45.52      
C           104.79      -87.65      -44.28      
C           99.84       -86.77      -42.87      
C           98.62       -87.37      -43.6       
C           99.17       -88.2       -44.67      
C           106.6       -87.97      -45.81      
C           107.47      -87.36      -44.93      
C           106.84      -86.81      -43.83      
C           105.55      -86.95      -43.41      
C           97.31       -87.03      -43.57      
C           96.47       -87.45      -44.59      
C           97.02       -88.31      -45.6       
C           98.38       -88.74      -45.61      
C           103.86      -88.22      -47.7       
C           104.6       -90.27      -46.45      
C           99.95       -85.24      -42.96      
C           99.79       -87.09      -41.34      
H           102.76      -86.44      -42.58      
H           101.15      -89.3       -46.4       
H           96.93       -86.29      -42.9       
H           98.77       -89.43      -46.41      
H           106.96      -88.26      -46.8       
H           105.18      -86.55      -42.48      
H           102.85      -88.59      -48.06      
H           104.56      -88.47      -48.46      
H           103.72941   -87.13904   -47.64922   
H           105.12      -90.65      -45.6       
H           105.43      -90.35      -47.23      
H           103.8746    -91.03061   -46.73875   
H           100.55      -86.55      -40.83      
H           98.8        -86.78      -40.95      
H           99.89463    -88.15724   -41.14469   
H           100.84      -84.93      -42.42      
H           99.07       -84.84      -42.41      
H           100.07384   -84.91948   -43.99442   
H           109.58      -87.51      -45.79      
H           94.54       -86.42      -44.26      
S           108.06      -86.05      -42.79      
C           108.92      -87.17      -44.94      
C           109.37      -86.54      -43.86      
C           90.55       -87.9       -47.68      
C           90.79       -87.16      -46.47      
C           91.67       -88.5       -48.2       
N           89.95       -86.52      -45.7       
N           92.02       -86.44      -44.79      
O           90.7        -86.12      -44.67      
H           93.68       -88.92      -48.26      
H           91.69       -89.14      -49.11      
C           92.94       -88.46      -47.61      
C           92.11       -87.1       -45.92      
C           93.26       -87.77      -46.44      
C           76.17       -90.63      -55.39      
C           77.16       -91.52      -55.37      
S           76.42       -89.21      -54.4       
C           82.32       -90.17      -52.39      
C           81.31       -89.21      -52.29      
C           81.49       -88.01      -51.54      
C           82.74       -87.81      -50.91      
C           83.71       -88.85      -51.0       
C           83.44       -90.01      -51.72      
C           83.36       -86.7       -50.05      
C           84.77       -87.28      -49.82      
C           84.94       -88.53      -50.24      
C           82.0        -91.16      -53.5       
C           80.5        -90.87      -53.69      
C           80.19       -89.67      -53.1       
C           85.8        -86.63      -49.17      
C           86.95       -87.29      -48.94      
C           87.08       -88.65      -49.39      
C           86.11       -89.24      -50.13      
C           79.59       -91.62      -54.42      
C           78.3        -91.06      -54.65      
C           78.03       -89.78      -54.02      
C           79.01       -89.02      -53.38      
C           82.55       -86.55      -48.73      
C           83.43       -85.34      -50.84      
C           82.3        -92.59      -53.11      
C           82.64       -90.9       -54.88      
H           84.19       -90.72      -51.7       
H           80.69       -87.24      -51.44      
H           79.95       -92.4       -55.02      
H           78.8        -88.09      -52.92      
H           85.74       -85.61      -48.83      
H           86.22       -90.26      -50.51      
H           81.52       -86.49      -48.93      
H           82.75       -87.41      -48.12      
H           82.90488    -85.70264   -48.14337   
H           82.45       -85.06      -51.1       
H           83.78       -84.5       -50.31      
H           84.04648    -85.41168   -51.73605   
H           82.3        -91.63      -55.64      
H           82.38       -89.9       -55.31      
H           83.7296     -90.92095   -54.85905   
H           83.41       -92.66      -53.05      
H           81.97       -93.34      -53.83      
H           81.94795    -92.78011   -52.09609   
H           88.31       -86.01      -47.7       
H           77.16       -92.36      -55.99      
S           88.71       -89.33      -49.12      
C           88.22       -86.92      -48.24      
C           89.22       -87.86      -48.3       
C           72.26       -91.46      -57.42      
C           73.0        -90.22      -57.53      
C           73.02       -92.37      -56.74      
N           72.78       -89.13      -58.25      
N           74.46       -88.58      -56.98      
O           73.61       -88.14      -57.9       
H           74.69       -92.91      -55.45      
H           72.64       -93.34      -56.61      
C           74.26       -92.11      -56.07      
C           74.16       -89.87      -56.78      
C           74.85       -90.87      -56.04      
H           133.81      32.8        3.34        
H           71.54       -91.82      -58.16      
