612

C           128.68      1.58        7.15        
C           128.08      1.91        8.34        
S           128.97      3.01        6.19        
C           125.78      7.52        9.36        
C           126.28      7.35        8.06        
C           126.07      8.29        7.02        
C           125.48      9.49        7.39        
C           125.11      9.64        8.73        
C           125.26      8.72        9.71        
C           124.95      10.59       6.4         
C           124.29      11.42       7.48        
C           124.44      10.94       8.85        
C           125.79      6.19        10.09       
C           126.6       5.23        9.2         
C           126.9       5.99        7.96        
C           123.64      12.64       7.26        
C           123.23      13.46       8.4         
C           123.44      12.92       9.68        
C           123.98      11.68       9.93        
C           127.03      3.95        9.4         
C           127.72      3.29        8.43        
C           128.15      4.06        7.29        
C           127.69      5.37        7.05        
C           123.95      10.09       5.38        
C           126.04      11.45       5.74        
C           124.36      5.66        10.33       
C           126.55      6.43        11.39       
H           124.88      8.91        10.68       
H           126.43      8.11        6.04        
H           126.78      3.38        10.25       
H           128.0       5.81        6.07        
H           123.41      13.02       6.26        
H           124.07      11.22       10.9        
H           124.54      9.73        4.53        
H           123.32      10.93       4.93        
H           123.25357   9.34912     5.77267     
H           126.74      11.87       6.46        
H           125.51      12.32       5.34        
H           126.62029   10.95463    4.96156     
H           126.2       7.16        12.14       
H           126.6       5.4         11.79       
H           127.59158   6.71733     11.24633    
H           123.76      6.28        10.98       
H           124.38      4.68        10.88       
H           123.90806   5.42292     9.36686     
H           122.71      15.45       7.61        
H           127.75      1.11        9.06        
S           122.9       13.98       10.95       
C           122.85      14.79       8.48        
C           122.59      15.24       9.71        
C           129.74      -2.39       5.48        
C           129.1       -2.31       6.78        
C           129.94      -1.19       4.99        
N           128.87      -3.24       7.72        
N           128.37      -1.24       8.61        
O           128.4       -2.58       8.8         
H           129.66      0.95        4.91        
H           130.19      -1.06       3.95        
C           129.61      0.08        5.53        
C           128.8       -1.0        7.39        
C           129.04      0.27        6.74        
C           131.07      -16.25      -3.6        
C           130.49      -16.37      -2.36       
S           131.41      -14.57      -4.0        
C           129.9       -11.25      1.17        
C           130.64      -11.15      0.0         
C           131.14      -9.9        -0.46       
C           130.88      -8.76       0.24        
C           130.31      -8.95       1.49        
C           129.73      -10.14      1.99        
C           131.31      -7.31       -0.03       
C           130.81      -6.66       1.3         
C           130.27      -7.64       2.19        
C           129.3       -12.71      1.28        
C           129.99      -13.42      0.12        
C           130.59      -12.4       -0.73       
C           130.88      -5.33       1.63        
C           130.34      -5.0        2.87        
C           129.89      -5.96       3.8         
C           129.78      -7.27       3.4         
C           129.83      -14.71      -0.36       
C           130.36      -15.06      -1.66       
C           130.94      -14.04      -2.45       
C           130.97      -12.68      -1.98       
C           130.6       -6.77       -1.22       
C           132.8       -7.2        -0.21       
C           127.78      -12.56      1.04        
C           129.72      -13.29      2.65        
H           129.17      -10.13      2.92        
H           131.69      -9.87       -1.37       
H           129.38      -15.41      0.37        
H           131.24      -11.89      -2.6        
H           131.27      -4.5        1.03        
H           129.47      -7.99       4.18        
H           131.07      -7.22       -2.1        
H           130.81      -5.71       -1.25       
H           129.52747   -6.94525    -1.13588    
H           133.24      -7.56       0.69        
H           132.97      -6.09       -0.34       
H           133.34882   -7.78401    -0.9488     
H           129.33      -12.55      3.36        
H           129.24      -14.23      2.92        
H           130.80609   -13.32549   2.73518     
H           127.41      -12.05      2.01        
H           127.64      -11.87      0.22        
H           127.20654   -13.48471   0.97549     
H           130.69      -2.83       2.77        
H           130.08      -17.24      -1.89       
S           129.34      -5.13       5.3         
C           130.37      -3.68       3.37        
C           129.87      -3.58       4.69        
C           132.95      -19.5       -5.84       
C           132.33      -19.71      -4.63       
C           132.91      -18.23      -6.29       
N           132.43      -20.76      -3.89       
N           131.22      -19.23      -2.79       
O           131.69      -20.48      -2.79       
H           132.16      -16.22      -6.02       
H           133.44      -17.98      -7.19       
C           132.22      -17.19      -5.55       
C           131.66      -18.71      -3.9        
C           131.62      -17.38      -4.38       
C           143.32      -30.9       -9.76       
C           143.67      -30.13      -8.72       
S           142.21      -30.15      -10.79      
C           140.85      -24.79      -7.81       
C           140.77      -25.29      -9.12       
C           139.95      -24.75      -10.1       
C           139.09      -23.69      -9.7        
C           139.07      -23.28      -8.35       
C           139.95      -23.78      -7.4        
C           137.78      -23.18      -10.42      
C           137.06      -22.48      -9.26       
C           137.86      -22.5       -8.08       
C           141.99      -25.54      -7.03       
C           142.35      -26.65      -8.01       
C           141.61      -26.53      -9.2        
C           135.82      -21.86      -9.26       
C           135.35      -21.36      -8.02       
C           136.13      -21.55      -6.82       
C           137.45      -22.0       -6.83       
C           143.13      -27.71      -7.75       
C           143.08      -28.79      -8.68       
C           142.24      -28.7       -9.81       
C           141.59      -27.49      -10.15      
C           137.14      -24.49      -10.99      
C           138.19      -22.27      -11.55      
C           141.16      -26.07      -5.88       
C           143.19      -24.58      -6.6        
H           139.94      -23.46      -6.37       
H           139.74      -25.35      -11.02      
H           143.93      -27.71      -7.03       
H           140.95      -27.47      -11.08      
H           135.26      -21.79      -10.17      
H           138.04      -22.01      -5.96       
H           137.68      -24.89      -11.85      
H           137.26      -25.31      -10.28      
H           136.11194   -24.46873   -11.35159   
H           138.87      -22.79      -12.19      
H           137.28      -21.9       -12.13      
H           138.73673   -21.40981   -11.16365   
H           142.78      -23.95      -5.79       
H           144.1       -25.03      -6.34       
H           143.51044   -23.93184   -7.41566    
H           140.55      -25.25      -5.44       
H           140.61      -26.99      -6.24       
H           141.78507   -26.52335   -5.11068    
H           133.44      -20.44      -8.63       
H           144.34      -30.4       -7.9        
S           135.21      -20.96      -5.4        
C           134.12      -20.73      -7.76       
C           133.93      -20.39      -6.46       
C           144.21      -35.12      -10.51      
C           143.84      -34.64      -9.2        
C           144.2       -34.1       -11.44      
N           143.75      -35.32      -8.09       
N           142.93      -33.26      -7.74       
O           143.15      -34.49      -7.19       
H           144.07      -31.98      -11.97      
H           144.4       -34.29      -12.47      
C           143.96      -32.76      -11.14      
C           143.38      -33.27      -8.99       
C           143.6       -32.32      -9.98       
C           147.58      -48.88      -18.83      
C           148.21      -47.65      -18.97      
S           146.71      -49.06      -17.33      
C           147.19      -42.92      -15.44      
C           146.57      -44.05      -14.99      
C           145.76      -44.02      -13.88      
C           145.52      -42.89      -13.09      
C           146.13      -41.7       -13.63      
C           146.89      -41.69      -14.85      
C           144.95      -42.56      -11.7       
C           145.25      -41.05      -11.64      
C           145.88      -40.55      -12.76      
C           147.87      -43.12      -16.77      
C           147.7       -44.58      -16.98      
C           146.89      -45.17      -15.91      
C           144.68      -40.16      -10.7       
C           144.82      -38.78      -10.94      
C           145.57      -38.28      -12.13      
C           146.14      -39.22      -13.01      
C           148.17      -45.38      -17.99      
C           147.86      -46.72      -17.94      
C           147.08      -47.32      -16.91      
C           146.55      -46.54      -15.82      
C           145.6       -43.37      -10.55      
C           143.47      -42.83      -11.77      
C           149.4       -42.76      -16.59      
C           147.27      -42.3       -17.96      
H           147.39      -40.88      -15.27      
H           145.32      -44.95      -13.51      
H           148.63      -44.86      -18.83      
H           145.89      -46.98      -15.06      
H           144.24      -40.58      -9.81       
H           146.56      -38.86      -13.96      
H           144.9       -43.9       -10.0       
H           146.3       -44.03      -11.03      
H           146.25744   -42.78481   -9.90701    
H           143.22      -43.88      -12.04      
H           142.98      -42.62      -10.8       
H           142.9698    -42.25338   -12.54808   
H           147.7       -41.3       -17.93      
H           147.56      -42.83      -18.88      
H           146.18126   -42.29259   -17.90816   
H           149.61      -41.69      -16.49      
H           149.98      -43.06      -17.57      
H           149.81076   -43.32657   -15.75431   
H           143.67      -37.68      -9.27       
H           148.63      -47.33      -19.99      
S           145.57      -36.57      -12.26      
C           144.31      -37.66      -10.18      
C           144.55      -36.46      -10.86      
C           147.62      -52.17      -21.78      
C           148.83      -51.42      -21.43      
C           146.48      -51.76      -21.11      
N           150.05      -51.47      -21.95      
N           150.04      -49.89      -20.31      
O           150.79      -50.68      -21.18      
H           145.53      -50.46      -19.69      
H           145.53      -52.18      -21.36      
C           146.5       -50.66      -20.14      
C           148.82      -50.36      -20.47      
C           147.65      -50.0       -19.75      
C           144.38      -63.11      -33.51      
C           143.55      -62.88      -32.46      
S           145.86      -62.25      -33.34      
C           144.93      -59.11      -27.98      
C           146.03      -59.46      -28.79      
C           147.34      -59.02      -28.63      
C           147.56      -58.18      -27.61      
C           146.47      -57.72      -26.88      
C           145.16      -58.18      -26.97      
C           148.81      -57.3       -27.36      
C           148.29      -56.37      -26.15      
C           146.87      -56.66      -25.91      
C           143.75      -60.04      -28.23      
C           144.12      -60.52      -29.66      
C           145.46      -60.31      -29.85      
C           148.88      -55.32      -25.44      
C           148.11      -54.66      -24.44      
C           146.79      -55.06      -24.19      
C           146.17      -56.04      -24.95      
C           143.42      -61.38      -30.46      
C           144.08      -61.99      -31.51      
C           145.38      -61.58      -31.79      
C           146.12      -60.77      -30.98      
C           149.3       -56.44      -28.57      
C           150.04      -58.09      -26.73      
C           142.42      -59.16      -28.37      
C           143.51      -61.18      -27.26      
H           144.42      -57.78      -26.3       
H           148.23      -59.43      -29.14      
H           142.35      -61.6       -30.31      
H           147.11      -60.67      -31.18      
H           149.97      -55.1       -25.52      
H           145.12      -56.28      -24.82      
H           149.79      -57.09      -29.32      
H           150.03      -55.94      -28.04      
H           148.53823   -55.81548   -29.03667   
H           150.81      -57.34      -26.57      
H           149.75      -58.35      -25.72      
H           150.40327   -58.94731   -27.2967    
H           142.62      -61.77      -27.55      
H           144.39      -61.85      -27.28      
H           143.37071   -60.91608   -26.21165   
H           141.6       -59.88      -28.3       
H           142.36      -58.43      -27.53      
H           142.41301   -58.48937   -29.22925   
H           149.43      -53.2       -23.62      
H           142.62      -63.44      -32.42      
S           145.96      -53.99      -23.07      
C           148.49      -53.66      -23.55      
C           147.51      -53.19      -22.81      
C           143.43      -65.59      -37.04      
C           144.76      -65.14      -36.81      
C           142.51      -65.05      -36.21      
N           145.88      -65.28      -37.58      
N           146.4       -64.11      -35.75      
O           146.8       -64.61      -36.92      
H           142.02      -64.03      -34.34      
H           141.43      -65.29      -36.29      
C           142.88      -64.31      -35.02      
C           145.09      -64.29      -35.7       
C           144.13      -63.93      -34.7       
C           137.02      -75.59      -48.6       
C           136.27      -74.73      -47.89      
S           138.72      -75.68      -48.08      
C           138.47      -71.48      -43.3       
C           139.33      -72.23      -44.07      
C           140.78      -72.2       -43.79      
C           141.27      -71.27      -42.88      
C           140.33      -70.46      -42.19      
C           138.97      -70.65      -42.28      
C           142.71      -70.9       -42.53      
C           142.48      -69.74      -41.53      
C           141.08      -69.6       -41.26      
C           137.03      -71.71      -43.82      
C           137.27      -72.62      -45.06      
C           138.63      -72.93      -45.13      
C           143.47      -68.93      -40.87      
C           143.0       -68.03      -39.9       
C           141.61      -68.01      -39.61      
C           140.66      -68.82      -40.24      
C           136.31      -73.2       -45.97      
C           136.95      -74.14      -46.82      
C           138.36      -74.4       -46.89      
C           139.23      -73.78      -46.03      
C           143.56      -70.55      -43.73      
C           143.42      -72.09      -41.86      
C           136.46      -70.3       -43.99      
C           136.18      -72.48      -42.81      
H           138.33      -70.05      -41.65      
H           141.53      -72.75      -44.37      
H           135.23      -72.98      -45.95      
H           140.31      -73.94      -46.0       
H           144.51      -69.07      -41.06      
H           139.58      -68.65      -40.0       
H           144.57      -70.57      -43.39      
H           143.48      -71.37      -44.44      
H           143.28093   -69.62691   -44.23806   
H           143.11      -73.0       -42.43      
H           144.52      -71.94      -41.77      
H           143.00796   -72.38127   -40.89383   
H           135.6       -71.89      -42.16      
H           135.46      -73.13      -43.27      
H           136.67762   -73.19398   -42.15372   
H           136.26      -69.87      -43.03      
H           137.22      -69.63      -44.39      
H           135.55249   -70.20074   -44.58555   
H           144.86      -67.03      -39.24      
H           135.17      -74.56      -48.17      
S           141.34      -66.8       -38.4       
C           143.82      -67.14      -39.11      
C           143.01      -66.46      -38.18      
C           135.58      -77.95      -52.2       
C           136.85      -78.16      -51.61      
C           135.08      -76.77      -51.69      
N           137.76      -79.0       -51.97      
N           138.57      -77.88      -50.19      
O           138.8       -78.89      -51.08      
H           134.89      -75.09      -50.27      
H           134.2       -76.31      -52.09      
C           135.52      -75.95      -50.56      
C           137.33      -77.38      -50.47      
C           136.65      -76.26      -49.85      
C           125.03      -88.88      -57.39      
C           124.72      -87.6       -57.13      
S           126.79      -89.18      -57.61      
C           128.9       -83.23      -56.67      
C           129.34      -84.46      -57.12      
C           130.78      -84.69      -57.09      
C           131.67      -83.62      -56.74      
C           131.18      -82.41      -56.28      
C           129.79      -82.21      -56.27      
C           133.17      -83.61      -56.69      
C           133.43      -82.37      -55.87      
C           132.23      -81.63      -55.73      
C           127.4       -83.23      -56.71      
C           127.09      -84.71      -57.04      
C           128.26      -85.42      -57.34      
C           134.59      -81.87      -55.32      
C           134.46      -80.56      -54.69      
C           133.22      -79.96      -54.55      
C           132.08      -80.56      -54.99      
C           125.86      -85.35      -56.91      
C           125.86      -86.75      -57.21      
C           127.06      -87.47      -57.65      
C           128.29      -86.8       -57.7       
C           133.71      -83.52      -58.12      
C           133.76      -84.78      -55.89      
C           126.93      -82.27      -57.87      
C           126.75      -82.75      -55.37      
H           129.37      -81.23      -55.89      
H           131.12      -85.68      -57.47      
H           124.98      -84.82      -56.59      
H           129.19      -87.32      -57.96      
H           135.54      -82.32      -55.34      
H           131.08      -80.12      -54.88      
H           134.17      -84.44      -58.51      
H           132.94      -83.38      -58.84      
H           134.29641   -82.62273   -58.31782   
H           133.46      -85.74      -56.27      
H           134.87      -84.7       -56.02      
H           133.5362    -84.67171   -54.82873   
H           126.7       -81.68      -55.33      
H           125.68      -83.09      -55.38      
H           127.23314   -83.19813   -54.50175   
H           126.81      -81.35      -57.39      
H           125.99      -82.62      -58.28      
H           127.69663   -82.15747   -58.63663   
H           136.43      -80.05      -53.82      
H           123.75      -87.2       -56.72      
S           133.27      -78.42      -53.7       
C           135.43      -79.78      -54.01      
C           134.97      -78.68      -53.34      
C           122.31      -92.44      -57.82      
C           122.03      -91.29      -57.05      
C           123.61      -92.4       -58.32      
N           120.91      -91.01      -56.37      
N           122.3       -89.34      -56.04      
O           121.17      -89.81      -55.71      
H           125.42      -91.22      -58.8       
H           123.92      -93.15      -59.04      
C           124.5       -91.25      -58.19      
C           122.91      -90.2       -56.83      
C           124.24      -90.13      -57.42      
C           113.28      -106.16     -60.05      
C           114.08      -105.7      -61.06      
S           113.14      -105.03     -58.72      
C           117.04      -100.4      -60.51      
C           116.18      -100.76     -59.44      
C           116.12      -100.07     -58.19      
C           116.9       -98.91      -58.11      
C           117.94      -98.62      -59.08      
C           117.97      -99.38      -60.25      
C           117.03      -97.95      -56.93      
C           118.16      -97.05      -57.37      
C           118.71      -97.55      -58.63      
C           116.85      -101.33     -61.77      
C           115.95      -102.36     -61.13      
C           115.43      -101.95     -59.86      
C           118.64      -95.84      -56.9       
C           119.69      -95.12      -57.54      
C           120.21      -95.75      -58.7       
C           119.68      -96.85      -59.28      
C           115.55      -103.62     -61.62      
C           114.73      -104.43     -60.77      
C           114.22      -103.9      -59.55      
C           114.46      -102.66     -59.11      
C           117.35      -98.77      -55.67      
C           115.71      -97.07      -56.73      
C           118.19      -101.92     -62.31      
C           116.0       -100.59     -62.85      
H           118.71      -99.2       -60.99      
H           115.37      -100.29     -57.48      
H           115.83      -103.94     -62.63      
H           114.12      -102.33     -58.14      
H           118.19      -95.43      -56.03      
H           120.0       -97.2       -60.25      
H           116.76      -99.6       -55.28      
H           118.33      -99.1       -55.98      
H           117.68711   -98.18185   -54.81646   
H           115.02      -97.82      -56.29      
H           115.81      -96.29      -55.93      
H           115.36352   -96.68743   -57.69005   
H           116.48      -100.65     -63.85      
H           115.01      -101.16     -62.96      
H           115.67598   -99.59036   -62.56045   
H           118.71      -101.11     -62.81      
H           118.08      -102.69     -63.04      
H           118.81612   -102.18733  -61.45876   
H           120.07      -93.45      -56.22      
H           114.26      -106.3      -61.94      
S           121.54      -94.72      -59.27      
C           120.33      -93.93      -57.15      
C           121.44      -93.61      -57.88      
C           110.22      -109.3      -60.04      
C           110.96      -108.96     -58.86      
C           110.73      -108.65     -61.18      
N           110.82      -109.38     -57.55      
N           112.32      -107.79     -57.59      
O           111.62      -108.67     -56.82      
H           112.03      -107.34     -62.14      
H           110.38      -108.88     -62.18      
C           111.8       -107.75     -61.17      
C           111.94      -107.92     -58.85      
C           112.43      -107.31     -60.04      
C           94.0        -112.39     -59.66      
C           94.58       -111.43     -58.87      
S           95.0        -112.78     -60.97      
C           100.54      -110.4      -59.04      
C           100.03      -110.99     -60.23      
C           100.83      -111.25     -61.39      
C           102.17      -111.1      -61.14      
C           102.7       -110.55     -59.93      
C           101.89      -110.1      -58.87      
C           103.31      -111.68     -62.05      
C           104.51      -111.21     -61.18      
C           104.11      -110.53     -59.99      
C           99.42       -110.18     -57.99      
C           98.17       -110.45     -58.86      
C           98.57       -111.16     -60.02      
C           105.85      -111.33     -61.46      
C           106.8       -110.81     -60.59      
C           106.41      -110.13     -59.44      
C           105.04      -110.06     -59.01      
C           96.79       -110.34     -58.52      
C           95.92       -111.14     -59.23      
C           96.39       -111.83     -60.36      
C           97.68       -111.8      -60.84      
C           103.27      -110.99     -63.46      
C           103.25      -113.2      -62.23      
C           99.41       -108.72     -57.4       
C           99.64       -111.17     -56.78      
H           102.28      -109.48     -58.03      
H           100.37      -111.62     -62.3       
H           96.46       -109.66     -57.71      
H           98.01       -112.3      -61.72      
H           106.13      -111.69     -62.51      
H           104.83      -109.55     -58.14      
H           102.27      -110.92     -63.94      
H           103.83      -111.55     -64.19      
H           103.64382   -109.9673   -63.50937   
H           103.55      -113.77     -61.32      
H           104.02      -113.33     -62.94      
H           102.37594   -113.57853  -62.75994   
H           100.71      -111.21     -56.4       
H           99.14       -110.76     -55.9       
H           99.18548    -112.15118  -56.91708   
H           100.25      -108.59     -56.67      
H           98.57       -108.59     -56.76      
H           99.35326    -107.96823  -58.18723   
H           108.57      -110.84     -61.89      
H           94.17       -111.0      -57.94      
S           107.86      -109.51     -58.64      
C           108.19      -110.58     -60.87      
C           108.97      -109.97     -59.98      
C           89.73       -113.25     -60.13      
C           90.68       -114.28     -60.3       
C           90.23       -112.07     -59.73      
N           90.54       -115.49     -60.6       
N           92.78       -115.24     -60.3       
O           91.8        -116.12     -60.55      
H           91.83       -110.79     -59.35      
H           89.66       -111.23     -59.55      
C           91.62       -111.82     -59.58      
C           92.12       -114.09     -60.08      
C           92.61       -112.78     -59.73      
C           73.55       -114.47     -57.84      
C           74.35       -115.55     -57.84      
S           74.33       -113.07     -58.55      
C           80.26       -115.13     -59.53      
C           79.47       -114.04     -59.86      
C           80.11       -112.85     -60.41      
C           81.5        -112.75     -60.33      
C           82.22       -113.92     -59.91      
C           81.61       -115.09     -59.47      
C           82.4        -111.55     -60.7       
C           83.76       -112.31     -60.65      
C           83.6        -113.61     -60.02      
C           79.32       -116.27     -59.17      
C           77.98       -115.54     -58.92      
C           78.08       -114.23     -59.39      
C           85.01       -111.85     -60.88      
C           86.08       -112.69     -60.65      
C           85.91       -113.96     -60.07      
C           84.69       -114.43     -59.72      
C           76.81       -116.06     -58.33      
C           75.72       -115.25     -58.28      
C           75.8        -113.94     -58.83      
C           76.93       -113.42     -59.33      
C           82.21       -110.36     -59.7       
C           82.03       -111.11     -62.15      
C           79.81       -117.08     -57.94      
C           79.18       -117.28     -60.36      
H           82.2        -115.94     -59.17      
H           79.54       -111.93     -60.55      
H           76.68       -117.14     -58.19      
H           77.0        -112.33     -59.48      
H           85.2        -110.84     -61.2       
H           84.59       -115.46     -59.38      
H           81.37       -109.75     -60.11      
H           81.97       -110.75     -58.75      
H           83.08379    -109.71689  -59.59514   
H           80.93       -110.86     -62.09      
H           82.63       -110.24     -62.35      
H           82.09183    -111.88634  -62.9126    
H           79.39       -118.36     -60.16      
H           78.13       -117.19     -60.68      
H           79.83713    -117.06572  -61.20283   
H           80.86       -117.36     -58.08      
H           79.28       -118.03     -57.85      
H           79.71877    -116.49052  -57.0277    
H           87.8        -111.31     -61.12      
H           74.07       -116.51     -57.48      
S           87.48       -114.64     -59.83      
C           87.48       -112.3      -60.81      
C           88.31       -113.29     -60.47      
C           69.49       -113.98     -56.04      
C           70.51       -114.75     -55.44      
C           69.89       -113.33     -57.18      
N           70.34       -115.71     -54.51      
N           72.42       -115.95     -55.35      
O           71.5        -116.43     -54.47      
H           71.47       -112.95     -58.68      
H           69.18       -112.68     -57.65      
C           71.27       -113.45     -57.71      
C           71.78       -115.05     -56.08      
C           72.23       -114.29     -57.2       
H           121.95      16.07       9.83        
H           68.41       -114.06     -55.84      
