612

C           140.88      21.68       1.93        
C           140.35      22.96       2.07        
S           141.52      21.1        3.52        
C           140.62      26.12       7.25        
C           141.18      24.81       7.28        
C           141.85      24.3        8.4         
C           142.15      25.16       9.44        
C           141.53      26.45       9.41        
C           140.7       26.91       8.35        
C           142.98      25.04       10.72       
C           142.75      26.39       11.42       
C           141.81      27.2        10.63       
C           139.85      26.34       5.98        
C           140.22      25.1        5.16        
C           140.93      24.17       6.01        
C           143.0       26.65       12.75       
C           142.6       27.9        13.33       
C           141.64      28.71       12.54       
C           141.22      28.42       11.2        
C           139.87      24.69       3.87        
C           140.37      23.48       3.41        
C           141.05      22.56       4.32        
C           141.24      22.9        5.67        
C           144.43      24.8        10.26       
C           142.47      23.83       11.52       
C           140.34      27.72       5.43        
C           138.31      26.41       6.22        
H           140.08      27.86       8.49        
H           142.25      23.33       8.4         
H           139.43      25.41       3.16        
H           141.57      22.19       6.43        
H           143.61      26.03       13.33       
H           140.49      29.12       10.66       
H           144.64      23.74       10.0        
H           144.97      24.93       11.18       
H           144.7887    25.53809    9.5426      
H           141.37      23.75       11.69       
H           142.95      23.8        12.49       
H           142.57213   22.816      11.13337    
H           138.06      27.2        6.85        
H           137.91      26.52       5.2         
H           137.88411   25.45885    6.53942     
H           140.19      28.4        6.2         
H           139.68      27.93       4.59        
H           141.38465   27.69118    5.12021     
H           143.63      28.15       15.3        
H           139.85      23.41       1.3         
S           141.02      29.99       13.6        
C           142.85      28.5        14.61       
C           142.19      29.64       14.82       
C           142.01      19.18       -1.66       
C           141.61      20.53       -1.91       
C           142.01      18.78       -0.34       
N           141.64      21.3        -3.06       
N           140.88      22.49       -1.24       
O           141.08      22.45       -2.62       
H           141.6       19.13       1.69        
H           142.3       17.81       -0.14       
C           141.58      19.59       0.78        
C           141.22      21.29       -0.75       
C           141.26      20.91       0.67        
C           148.23      9.12        -13.29      
C           147.34      8.73        -12.33      
S           148.38      10.85       -13.33      
C           145.4       12.43       -7.92       
C           145.98      13.07       -9.01       
C           146.09      14.48       -9.1        
C           145.41      15.24       -8.17       
C           144.74      14.62       -7.1        
C           144.83      13.24       -6.91       
C           145.61      16.73       -7.81       
C           144.73      16.87       -6.61       
C           144.33      15.6        -6.16       
C           145.14      10.94       -8.28       
C           145.9       10.81       -9.56       
C           146.36      12.05       -10.01      
C           144.48      17.9        -5.8        
C           143.67      17.81       -4.7        
C           143.36      16.55       -4.14       
C           143.72      15.41       -4.94       
C           146.18      9.69        -10.31      
C           146.91      9.77        -11.49      
C           147.39      11.03       -11.92      
C           147.0       12.22       -11.24      
C           145.15      17.67       -8.94       
C           147.0       17.04       -7.23       
C           143.68      10.6        -8.62       
C           145.77      9.88        -7.34       
H           144.57      12.79       -6.0        
H           146.3       14.99       -10.05      
H           145.78      8.71        -10.02      
H           147.32      13.18       -11.72      
H           144.72      18.88       -6.23       
H           143.28      14.43       -4.6        
H           145.69      17.65       -9.82       
H           145.18      18.62       -8.43       
H           144.11066   17.53191    -9.23799    
H           147.47      16.28       -6.7        
H           146.93      17.82       -6.51       
H           147.78611   17.26357    -7.95121    
H           145.31      8.93        -7.59       
H           146.84      9.93        -7.5        
H           145.4344    10.01132    -6.3113     
H           143.48      9.6         -8.84       
H           143.09      10.71       -7.64       
H           143.3018    11.13929    -9.48846    
H           143.5       19.84       -4.05       
H           146.93      7.72        -12.23      
S           142.5       16.74       -2.62       
C           143.25      18.84       -3.82       
C           142.58      18.44       -2.73       
C           149.33      6.71        -16.72      
C           147.94      6.94        -16.42      
C           150.25      7.35        -15.91      
N           146.83      6.51        -16.96      
N           146.3       7.94        -15.29      
O           145.82      7.15        -16.3       
H           150.67      8.61        -14.13      
H           151.28      7.17        -16.06      
C           149.9       8.16        -14.74      
C           147.6       7.79        -15.27      
C           148.57      8.37        -14.39      
C           152.69      8.2         -31.68      
C           153.74      8.14        -30.9       
S           151.43      7.04        -31.17      
C           153.22      5.86        -25.28      
C           152.38      5.25        -26.23      
C           151.24      4.43        -25.85      
C           151.02      4.37        -24.44      
C           151.94      4.93        -23.48      
C           153.07      5.57        -23.9       
C           149.68      4.01        -23.72      
C           150.06      4.42        -22.28      
C           151.43      4.9         -22.13      
C           154.36      6.62        -26.03      
C           153.92      6.46        -27.46      
C           152.7       5.74        -27.53      
C           149.17      4.47        -21.21      
C           149.72      4.96        -20.02      
C           151.0       5.55        -19.94      
C           151.88      5.51        -20.96      
C           154.37      7.1         -28.57      
C           153.59      7.3         -29.7       
C           152.32      6.66        -29.71      
C           151.83      5.81        -28.65      
C           149.4       2.51        -23.96      
C           148.41      4.8         -24.1       
C           155.72      5.93        -25.74      
C           154.46      8.14        -25.63      
H           153.68      6.09        -23.18      
H           150.57      3.97        -26.58      
H           155.31      7.56        -28.52      
H           150.95      5.18        -28.72      
H           148.17      3.95        -21.23      
H           152.9       5.73        -20.82      
H           148.39      2.28        -23.56      
H           149.36      2.4         -25.09      
H           150.16493   1.90089     -23.47838   
H           148.1       4.42        -25.11      
H           147.67      4.67        -23.33      
H           148.60127   5.86971     -24.18501   
H           155.37      8.36        -25.13      
H           154.55      8.84        -26.44      
H           153.65698   8.48613     -24.97927   
H           156.42      6.34        -26.51      
H           156.07      6.15        -24.76      
H           155.63878   4.84464     -25.79907   
H           148.09      4.75        -18.57      
H           154.59      8.89        -31.01      
S           151.29      6.43        -18.47      
C           149.07      5.07        -18.76      
C           149.75      5.88        -17.85      
C           151.37      11.52       -34.22      
C           150.9       10.22       -34.55      
C           152.27      11.66       -33.29      
N           150.1       9.67        -35.42      
N           151.02      7.94        -34.19      
O           150.16      8.29        -35.23      
H           153.44      10.78       -31.71      
H           152.63      12.67       -33.01      
C           152.8       10.55       -32.49      
C           151.48      9.11        -33.76      
C           152.35      9.27        -32.63      
C           145.88      23.85       -43.85      
C           147.19      23.71       -43.49      
S           144.82      22.74       -42.97      
C           149.17      19.6        -39.51      
C           147.82      19.5        -39.83      
C           146.96      18.5        -39.36      
C           147.52      17.57       -38.53      
C           148.89      17.57       -38.26      
C           149.78      18.62       -38.76      
C           146.84      16.4        -37.84      
C           148.0       15.67       -37.11      
C           149.21      16.4        -37.47      
C           149.85      20.78       -40.28      
C           148.63      21.29       -41.05      
C           147.46      20.56       -40.73      
C           148.0       14.61       -36.25      
C           149.21      14.16       -35.74      
C           150.41      14.89       -36.02      
C           150.41      16.01       -36.88      
C           148.63      22.34       -41.9       
C           147.42      22.71       -42.48      
C           146.21      22.03       -42.09      
C           146.21      20.97       -41.17      
C           146.11      15.43       -38.79      
C           145.87      16.92       -36.78      
C           150.85      20.44       -41.41      
C           150.34      21.92       -39.33      
H           150.85      18.71       -38.57      
H           145.83      18.46       -39.52      
H           149.45      22.89       -42.29      
H           145.38      20.28       -41.12      
H           147.09      13.97       -36.2       
H           151.39      16.48       -37.11      
H           145.12      15.09       -38.32      
H           145.78      16.2        -39.56      
H           146.73132   14.66075    -39.24859   
H           145.06      17.45       -37.35      
H           145.36      16.13       -36.17      
H           146.35753   17.63364    -36.11582   
H           150.82      22.71       -39.91      
H           149.52      22.26       -38.75      
H           150.96213   21.5839     -38.50049   
H           151.83      20.13       -40.98      
H           150.97      21.33       -41.99      
H           150.55568   19.58647    -42.02071   
H           148.72      12.21       -35.05      
H           147.88      24.38       -43.92      
S           151.79      14.08       -35.33      
C           149.49      12.92       -35.2       
C           150.77      12.74       -34.8       
C           144.27      25.58       -47.66      
C           145.34      26.19       -46.99      
C           143.84      24.47       -46.95      
N           146.08      27.24       -47.39      
N           146.92      26.45       -45.4       
O           146.98      27.37       -46.39      
H           143.62      23.24       -45.26      
H           143.13      23.83       -47.53      
C           144.22      24.09       -45.63      
C           145.87      25.7        -45.72      
C           145.27      24.59       -44.96      
C           141.48      27.4        -64.24      
C           140.86      26.45       -63.49      
S           142.33      28.59       -63.22      
C           142.04      25.81       -57.49      
C           142.55      26.97       -58.05      
C           143.3       27.84       -57.21      
C           143.36      27.53       -55.85      
C           142.76      26.37       -55.26      
C           142.06      25.51       -56.11      
C           144.1       28.4        -54.76      
C           143.82      27.59       -53.51      
C           143.1       26.37       -53.83      
C           141.32      24.94       -58.58      
C           141.34      25.81       -59.78      
C           142.1       27.01       -59.47      
C           144.14      27.86       -52.18      
C           143.98      26.81       -51.21      
C           143.24      25.63       -51.47      
C           142.77      25.42       -52.81      
C           140.98      25.6        -61.09      
C           141.32      26.44       -62.15      
C           142.0       27.64       -61.83      
C           142.43      27.9        -60.51      
C           143.47      29.87       -54.56      
C           145.62      28.49       -54.9       
C           139.86      24.78       -58.16      
C           142.11      23.66       -59.1       
H           141.56      24.56       -55.71      
H           143.74      28.76       -57.56      
H           140.35      24.73       -61.26      
H           142.96      28.76       -60.28      
H           144.48      28.79       -51.74      
H           142.13      24.51       -52.98      
H           143.35      30.52       -55.45      
H           144.16      30.42       -53.96      
H           142.44332   29.81216    -54.19849   
H           146.02      29.08       -55.77      
H           146.0       29.05       -54.03      
H           146.09013   27.50701    -54.87151   
H           141.66      23.14       -59.96      
H           143.07      24.06       -59.45      
H           142.42125   22.96306    -58.32186   
H           139.75      24.42       -57.14      
H           139.44      25.79       -58.28      
H           139.2131    24.19504    -58.81378   
H           144.85      27.68       -49.33      
H           140.24      25.67       -63.92      
S           143.06      24.65       -49.99      
C           144.24      26.93       -49.78      
C           143.87      25.86       -49.05      
C           141.44      28.34       -68.64      
C           142.63      28.4        -67.79      
C           140.44      27.71       -67.96      
N           143.95      28.49       -68.08      
N           143.87      28.04       -65.91      
O           144.66      28.51       -66.9       
H           139.47      27.09       -66.04      
H           139.58      27.41       -68.54      
C           140.41      27.39       -66.5       
C           142.64      28.11       -66.41      
C           141.49      27.66       -65.7       
C           141.37      33.78       -84.19      
C           142.51      33.75       -83.43      
S           139.95      33.1        -83.39      
C           142.37      31.44       -77.77      
C           141.2       31.27       -78.52      
C           140.05      30.61       -77.96      
C           140.03      30.28       -76.59      
C           141.29      30.33       -75.92      
C           142.4       30.91       -76.5       
C           139.06      29.5        -75.75      
C           139.84      29.36       -74.45      
C           141.17      29.71       -74.67      
C           143.43      32.12       -78.59      
C           142.7       32.34       -79.9       
C           141.34      31.9        -79.81      
C           139.43      28.85       -73.26      
C           140.32      28.84       -72.16      
C           141.68      29.12       -72.45      
C           142.12      29.48       -73.73      
C           143.26      32.86       -81.09      
C           142.32      33.09       -82.13      
C           140.97      32.66       -82.02      
C           140.53      31.91       -80.9       
C           138.64      28.25       -76.5       
C           137.75      30.41       -75.53      
C           144.68      31.15       -78.65      
C           143.87      33.43       -77.98      
H           143.3       30.99       -75.89      
H           139.12      30.59       -78.58      
H           144.4       33.07       -81.2       
H           139.5       31.53       -80.78      
H           138.32      28.73       -73.12      
H           143.2       29.73       -73.81      
H           137.71      28.36       -76.95      
H           139.37      27.94       -77.29      
H           138.66861   27.32721    -75.92057   
H           137.11      30.21       -76.36      
H           137.33      30.16       -74.62      
H           137.88872   31.49052    -75.4935    
H           144.4       33.19       -77.13      
H           144.55      33.98       -78.67      
H           143.0906    34.16025    -77.76233   
H           145.61      31.57       -78.37      
H           144.52      30.36       -77.94      
H           144.72992   30.61516    -79.59845   
H           139.09      28.36       -70.33      
H           143.47      34.18       -83.75      
S           142.62      28.57       -71.14      
C           140.08      28.53       -70.8       
C           141.23      28.52       -70.05      
C           141.33      33.72       -88.53      
C           142.35      33.02       -87.8       
C           140.53      34.51       -87.75      
N           143.39      32.3        -88.16      
N           143.27      32.21       -85.86      
O           143.84      31.71       -86.96      
H           139.83      35.11       -85.73      
H           139.81      35.09       -88.29      
C           140.59      34.57       -86.33      
C           142.31      32.98       -86.36      
C           141.41      33.8        -85.61      
C           136.2       32.73       -104.33     
C           135.61      33.48       -103.32     
S           137.64      31.92       -103.76     
C           137.98      34.15       -97.77      
C           138.64      33.21       -98.62      
C           139.69      32.42       -98.02      
C           140.05      32.63       -96.72      
C           139.4       33.57       -95.97      
C           138.26      34.25       -96.39      
C           140.97      31.74       -95.88      
C           140.99      32.58       -94.56      
C           139.98      33.55       -94.64      
C           136.77      34.75       -98.51      
C           137.03      34.19       -99.93      
C           137.96      33.13       -99.94      
C           141.67      32.33       -93.35      
C           141.25      33.02       -92.25      
C           140.24      34.0        -92.31      
C           139.6       34.27       -93.52      
C           136.19      34.38       -100.98     
C           136.38      33.56       -102.14     
C           137.43      32.63       -102.13     
C           138.23      32.33       -101.03     
C           142.27      31.76       -96.7       
C           140.44      30.33       -95.65      
C           136.9       36.31       -98.54      
C           135.39      34.3        -97.95      
H           137.82      35.03       -95.75      
H           140.23      31.7        -98.63      
H           135.31      35.06       -100.96     
H           139.14      31.72       -101.07     
H           142.47      31.62       -93.26      
H           138.83      34.97       -93.63      
H           142.17      31.05       -97.52      
H           142.37      32.71       -97.34      
H           143.14003   31.52335    -96.0875    
H           140.36      29.73       -96.57      
H           141.24      29.92       -94.95      
H           139.43869   30.30885    -95.21986   
H           134.62      34.87       -98.52      
H           135.31      33.3        -98.25      
H           135.22008   34.477      -96.88798   
H           136.58      36.87       -97.61      
H           136.16      36.7        -99.23      
H           137.93493   36.53377    -98.79873   
H           142.6       32.23       -90.67      
H           134.68      34.09       -103.47     
S           139.87      34.6        -90.69      
C           141.71      32.83       -90.92      
C           141.09      33.56       -89.97      
C           134.53      31.63       -108.15     
C           135.92      31.86       -107.99     
C           133.78      31.97       -107.03     
N           136.98      31.74       -108.88     
N           137.74      32.48       -106.93     
O           138.04      32.21       -108.22     
H           133.68      32.4        -104.94     
H           132.7       31.98       -107.2      
C           134.35      32.3        -105.77     
C           136.45      32.37       -106.77     
C           135.67      32.48       -105.63     
C           125.03      25.77       -120.4      
C           124.68      26.9        -119.75     
S           126.8       25.39       -120.32     
C           128.18      29.14       -115.4      
C           128.91      28.52       -116.4      
C           130.3       28.31       -116.26     
C           131.01      28.81       -115.21     
C           130.29      29.55       -114.22     
C           128.89      29.69       -114.25     
C           132.47      28.56       -114.81     
C           132.57      29.45       -113.53     
C           131.24      29.92       -113.14     
C           126.67      29.27       -115.8      
C           126.75      28.73       -117.28     
C           128.0       28.08       -117.48     
C           133.69      29.83       -112.85     
C           133.53      30.41       -111.57     
C           132.22      30.69       -111.13     
C           131.08      30.61       -111.93     
C           125.69      28.56       -118.15     
C           125.76      27.49       -119.05     
C           126.98      26.8        -119.24     
C           128.16      27.21       -118.58     
C           133.29      29.01       -116.09     
C           132.84      27.09       -114.4      
C           126.29      30.72       -115.78     
C           125.71      28.48       -114.89     
H           128.34      30.27       -113.55     
H           130.8       27.86       -117.06     
H           124.79      29.07       -117.92     
H           129.03      26.71       -118.82     
H           134.61      29.55       -113.24     
H           130.14      31.03       -111.56     
H           134.35      28.92       -115.83     
H           133.12      28.28       -116.83     
H           133.06401   30.00579    -116.47136  
H           132.81      26.55       -115.35     
H           133.87      27.08       -114.04     
H           132.12576   26.6932     -113.67854  
H           125.47      29.2        -114.16     
H           124.9       28.13       -115.49     
H           126.13089   27.59541    -114.41204  
H           126.5       31.15       -114.81     
H           125.21      30.79       -115.91     
H           126.84719   31.32118    -116.49848  
H           135.59      30.84       -110.75     
H           123.77      27.4        -119.82     
S           132.24      31.3        -109.53     
C           134.5       30.85       -110.59     
C           133.94      31.3        -109.43     
C           121.95      23.11       -122.16     
C           123.31      22.65       -121.97     
C           121.75      24.24       -121.51     
N           123.89      21.51       -122.21     
N           125.55      22.8        -121.64     
O           125.18      21.52       -121.98     
H           122.36      25.93       -120.41     
H           120.73      24.64       -121.34     
C           122.73      25.04       -120.93     
C           124.41      23.46       -121.52     
C           124.12      24.79       -121.05     
C           109.52      16.29       -130.95     
C           109.53      17.58       -130.46     
S           111.04      15.56       -130.47     
C           113.89      19.88       -126.92     
C           114.21      18.61       -127.46     
C           115.34      17.86       -126.99     
C           116.23      18.47       -126.15     
C           116.02      19.84       -125.75     
C           114.81      20.44       -126.05     
C           117.62      17.98       -125.64     
C           118.14      19.23       -125.0      
C           117.25      20.32       -125.08     
C           112.5       20.38       -127.32     
C           112.15      19.41       -128.45     
C           113.06      18.25       -128.31     
C           119.37      19.35       -124.4      
C           119.64      20.53       -123.67     
C           118.77      21.64       -123.77     
C           117.54      21.53       -124.45     
C           110.91      19.25       -129.11     
C           110.65      17.99       -129.71     
C           111.61      16.96       -129.58     
C           112.77      17.02       -128.89     
C           118.58      17.59       -126.81     
C           117.54      16.97       -124.49     
C           112.52      21.73       -128.07     
C           111.42      20.32       -126.23     
H           114.58      21.42       -125.65     
H           115.54      16.91       -127.45     
H           110.11      20.05       -129.2      
H           113.44      16.18       -128.95     
H           120.23      18.63       -124.57     
H           116.82      22.34       -124.49     
H           118.16      16.73       -127.24     
H           119.53      17.49       -126.41     
H           118.54377   18.30016    -127.63611  
H           117.09      17.48       -123.72     
H           118.37      16.48       -124.02     
H           116.85407   16.16855    -124.76437  
H           110.4       20.49       -126.59     
H           111.36      19.28       -126.02     
H           111.68637   20.87435    -125.33009  
H           112.85      22.57       -127.42     
H           111.54      21.94       -128.51     
H           113.20658   21.72333    -128.91656  
H           121.7       20.33       -122.98     
H           108.78      18.27       -130.71     
S           119.45      23.12       -123.15     
C           120.88      20.98       -123.01     
C           120.92      22.27       -122.67     
C           106.64      13.78       -133.21     
C           106.44      15.18       -133.0      
C           107.82      13.33       -132.7      
N           105.45      16.08       -133.41     
N           106.93      17.19       -132.11     
O           105.84      17.25       -132.84     
H           109.54      13.58       -131.48     
H           108.01      12.24       -132.76     
C           108.71      14.1        -131.92     
C           107.39      15.95       -132.26     
C           108.56      15.42       -131.69     
C           94.66       2.76        -136.07     
C           95.93       2.42        -135.62     
S           94.71       4.44        -136.62     
C           100.63      6.2         -135.42     
C           99.49       6.77        -135.98     
C           99.42       8.07        -136.43     
C           100.44      8.95        -136.19     
C           101.55      8.51        -135.48     
C           101.7       7.11        -135.17     
C           100.43      10.49       -136.28     
C           101.82      10.81       -135.62     
C           102.48      9.62        -135.38     
C           100.42      4.71        -135.13     
C           98.95       4.52        -135.54     
C           98.5        5.73        -136.04     
C           102.4       12.01       -135.52     
C           103.66      12.11       -134.98     
C           104.3       10.9        -134.6      
C           103.71      9.66        -134.75     
C           98.23       3.38        -135.54     
C           96.92       3.42        -135.79     
C           96.4        4.62        -136.29     
C           97.23       5.69        -136.67     
C           99.3        11.08       -135.38     
C           100.48      10.98       -137.76     
C           100.64      4.38        -133.64     
C           101.39      3.89        -136.06     
H           102.63      6.73        -134.82     
H           98.57       8.38        -136.98     
H           98.69       2.49        -135.12     
H           96.8        6.55        -137.1      
H           101.79      12.89       -135.67     
H           104.18      8.84        -134.22     
H           99.4        12.17       -135.25     
H           98.33       10.87       -135.84     
H           99.21913    10.65359    -134.38013  
H           99.46       11.18       -138.17     
H           100.99      11.92       -137.81     
H           100.89737   10.23015    -138.43203  
H           101.21      2.81        -136.03     
H           101.28      4.2         -137.08     
H           102.43373   3.93937     -135.7497   
H           101.58      4.86        -133.43     
H           100.77      3.26        -133.5      
H           99.85019    4.81798     -133.02969  
H           104.12      14.28       -134.54     
H           96.17       1.43        -135.23     
S           105.73      11.21       -133.63     
C           104.44      13.26       -134.45     
C           105.58      12.93       -133.81     
C           90.87       0.68        -135.01     
C           90.97       1.59        -136.1      
C           92.1        0.45        -134.52     
N           89.98       2.13        -136.8      
N           91.83       2.94        -137.65     
O           90.5        2.84        -137.86     
H           94.18       1.04        -134.24     
H           92.21       -0.39       -133.86     
C           93.3        1.13        -134.88     
C           92.17       2.24        -136.57     
C           93.41       2.06        -135.88     
H           142.59      30.34       15.49       
H           89.88       0.37        -134.5      
