612

C           129.29      25.26       4.85        
C           128.53      24.59       5.82        
S           130.16      26.65       5.53        
C           127.12      27.1        11.26       
C           128.17      27.74       10.56       
C           128.93      28.71       11.16       
C           128.53      29.25       12.41       
C           127.45      28.65       13.06       
C           126.79      27.62       12.54       
C           128.95      30.53       13.12       
C           127.95      30.56       14.26       
C           127.12      29.43       14.23       
C           126.43      26.08       10.41       
C           127.37      26.07       9.14        
C           128.24      27.15       9.2         
C           127.86      31.55       15.2        
C           126.72      31.49       16.02       
C           125.86      30.35       15.94       
C           126.0       29.33       15.07       
C           127.34      25.19       8.05        
C           128.31      25.42       6.98        
C           129.17      26.52       7.05        
C           129.09      27.47       8.11        
C           128.8       31.79       12.23       
C           130.36      30.37       13.79       
C           125.01      26.5        10.0        
C           126.41      24.65       11.09       
H           125.96      27.24       13.09       
H           129.65      29.18       10.55       
H           126.75      24.26       7.98        
H           129.76      28.32       8.17        
H           128.48      32.45       15.25       
H           125.35      28.42       15.02       
H           129.51      31.84       11.39       
H           128.99      32.68       12.78       
H           127.78488   31.90279    11.84933    
H           130.28      29.9        14.81       
H           130.86      31.32       13.96       
H           131.04447   29.77726    13.18315    
H           125.76      24.73       11.94       
H           125.99      23.82       10.46       
H           127.42043   24.43653    11.43867    
H           124.32      26.36       10.75       
H           124.6       25.81       9.25        
H           125.01      27.53897    9.6704      
H           126.55      33.41       17.27       
H           127.95      23.69       5.62        
S           124.56      30.41       17.06       
C           126.12      32.45       17.0        
C           124.93      32.08       17.58       
C           129.91      24.03       0.74        
C           129.75      23.06       1.74        
C           130.09      25.3        1.16        
N           129.59      21.74       1.62        
N           129.24      22.27       3.85        
O           129.35      21.29       2.89        
H           129.93      26.68       2.81        
H           130.19      26.05       0.41        
C           129.95      25.64       2.53        
C           129.5       23.4        3.09        
C           129.63      24.77       3.52        
C           127.86      18.92       -14.84      
C           127.45      20.09       -14.3       
S           128.65      17.98       -13.63      
C           128.08      21.74       -8.42       
C           128.82      20.62       -8.83       
C           129.83      20.08       -8.0        
C           130.1       20.65       -6.73       
C           129.36      21.82       -6.42       
C           128.31      22.3        -7.19       
C           130.93      20.07       -5.55       
C           130.78      21.24       -4.61       
C           129.77      22.17       -5.09       
C           127.26      22.3        -9.59       
C           127.71      21.31       -10.71      
C           128.44      20.19       -10.15      
C           131.21      21.39       -3.29       
C           130.57      22.32       -2.45       
C           129.65      23.25       -3.01       
C           129.25      23.21       -4.35       
C           127.4       21.31       -12.03      
C           127.68      20.26       -12.91      
C           128.43      19.12       -12.37      
C           128.78      19.12       -10.99      
C           132.44      19.85       -5.74       
C           130.25      18.88       -4.8        
C           127.76      23.75       -9.96       
C           125.7       22.21       -9.53       
H           127.77      23.15       -6.72       
H           130.37      19.23       -8.37       
H           126.96      22.23       -12.4       
H           129.14      18.25       -10.51      
H           131.79      20.6        -2.79       
H           128.63      23.99       -4.7        
H           132.55      19.08       -6.43       
H           132.85      19.54       -4.79       
H           132.94801   20.75468    -6.07404    
H           129.21      19.14       -4.72       
H           130.61      18.67       -3.8        
H           130.11324   17.95145    -5.35425    
H           125.28      22.85       -10.39      
H           125.24      21.28       -9.69       
H           125.21835   22.73543    -8.70536    
H           127.04      24.12       -10.62      
H           127.76      24.39       -9.07       
H           128.7534    23.72202    -10.40773   
H           131.37      21.95       -0.47       
H           126.95      20.85       -14.89      
S           129.17      24.53       -1.9        
C           130.71      22.58       -1.1        
C           130.07      23.65       -0.63       
C           128.82      17.77       -19.0       
C           128.18      19.0        -18.74      
C           129.12      17.1        -17.86      
N           127.99      20.01       -19.53      
N           127.31      20.63       -17.45      
O           127.32      20.97       -18.72      
H           129.0       16.81       -15.82      
H           129.94      16.34       -17.91      
C           128.69      17.48       -16.57      
C           127.88      19.46       -17.38      
C           128.04      18.6        -16.26      
C           142.31      14.79       -27.88      
C           142.04      16.03       -27.46      
S           140.99      13.74       -27.6       
C           136.77      17.51       -24.73      
C           136.94      16.14       -25.14      
C           135.99      15.16       -24.86      
C           134.93      15.56       -24.01      
C           134.84      16.91       -23.55      
C           135.73      17.89       -23.88      
C           133.61      14.77       -23.71      
C           132.87      15.82       -22.92      
C           133.63      17.02       -22.74      
C           138.0       18.33       -25.2       
C           138.81      17.26       -25.95      
C           138.21      15.98       -25.84      
C           131.6       15.59       -22.31      
C           131.06      16.56       -21.54      
C           131.8       17.78       -21.38      
C           133.06      17.99       -21.95      
C           139.96      17.37       -26.55      
C           140.65      16.18       -26.98      
C           140.01      15.02       -26.96      
C           138.78      14.88       -26.35      
C           134.1       13.47       -22.93      
C           132.88      14.39       -25.02      
C           138.89      18.87       -24.04      
C           137.62      19.51       -26.18      
H           135.6       18.96       -23.6       
H           136.06      14.11       -25.2       
H           140.55      18.4        -26.62      
H           138.38      13.85       -26.19      
H           131.11      14.62       -22.45      
H           133.5       18.97       -21.92      
H           133.31      13.08       -22.29      
H           134.24      12.66       -23.7       
H           135.00492   13.69442    -22.36533   
H           133.55      13.86       -25.65      
H           132.02      13.7        -24.89      
H           132.44709   15.26281    -25.50877   
H           137.48      20.35       -25.57      
H           138.37      19.63       -26.97      
H           136.67965   19.30649    -26.69228   
H           139.58      19.65       -24.34      
H           138.29      19.46       -23.45      
H           139.40449   18.0584     -23.52551   
H           129.04      15.8        -20.98      
H           142.73      16.86       -27.57      
S           130.95      18.91       -20.35      
C           129.81      16.6        -20.86      
C           129.7       17.69       -20.13      
C           145.08      13.04       -30.83      
C           145.03      14.48       -30.6       
C           144.37      12.34       -29.88      
N           145.53      15.41       -31.32      
N           144.24      16.38       -29.74      
O           145.11      16.6        -30.79      
H           142.92      12.24       -28.28      
H           144.44      11.25       -29.83      
C           143.54      12.98       -28.89      
C           144.19      15.09       -29.63      
C           143.37      14.32       -28.74      
C           143.49      9.53        -45.48      
C           143.13      8.58        -44.53      
S           145.1       10.16       -45.24      
C           145.83      8.41        -39.18      
C           146.46      9.3         -40.01      
C           147.26      10.32       -39.52      
C           147.43      10.39       -38.15      
C           146.81      9.47        -37.27      
C           146.05      8.4         -37.82      
C           147.76      11.67       -37.45      
C           147.58      11.34       -35.99      
C           146.92      10.09       -35.92      
C           145.05      7.32        -39.93      
C           144.86      8.15        -41.17      
C           145.91      9.06        -41.35      
C           147.73      12.23       -34.93      
C           147.02      11.94       -33.76      
C           146.32      10.7        -33.72      
C           146.25      9.73        -34.75      
C           143.93      7.89        -42.21      
C           144.06      8.58        -43.43      
C           145.22      9.38        -43.69      
C           146.09      9.66        -42.63      
C           146.83      12.83       -37.89      
C           149.24      12.07       -37.74      
C           143.66      6.84        -39.39      
C           145.91      6.12        -40.19      
H           145.42      7.85        -37.14      
H           147.58      11.15       -40.18      
H           142.97      7.35        -42.03      
H           146.8       10.42       -42.74      
H           148.25      13.14       -35.0       
H           145.63      8.84        -34.68      
H           147.35      13.69       -37.53      
H           146.85      13.05       -38.99      
H           145.82267   12.75805    -37.47987   
H           149.37      12.46       -38.7       
H           149.56      12.85       -37.04      
H           149.92733   11.2424     -37.56466   
H           145.39      5.22        -40.47      
H           146.53      6.34        -41.05      
H           146.4957    5.746       -39.35026   
H           143.77      6.21        -38.47      
H           143.08      6.15        -39.97      
H           143.02753   7.67856     -39.09864   
H           147.22      13.8        -32.62      
H           142.13      8.05        -44.53      
S           145.28      10.75       -32.33      
C           146.82      12.8        -32.66      
C           145.81      12.35       -31.82      
C           141.28      10.71       -49.19      
C           140.64      9.96        -48.15      
C           142.55      11.12       -48.88      
N           139.56      9.3         -48.16      
N           140.61      8.76        -46.31      
O           139.39      8.61        -46.97      
H           144.18      11.16       -47.46      
H           143.09      11.7        -49.64      
C           143.25      10.74       -47.7       
C           141.41      9.57        -46.96      
C           142.68      10.04       -46.63      
C           133.98      20.05       -60.38      
C           135.34      19.95       -60.26      
S           133.21      18.65       -59.64      
C           138.11      15.43       -57.18      
C           136.74      15.39       -57.18      
C           136.06      14.27       -56.63      
C           136.81      13.5        -55.68      
C           138.18      13.78       -55.53      
C           138.89      14.65       -56.29      
C           136.32      12.38       -54.75      
C           137.54      12.3        -53.83      
C           138.63      13.07       -54.36      
C           138.66      16.48       -58.13      
C           137.39      17.23       -58.55      
C           136.24      16.51       -58.0       
C           137.69      11.47       -52.77      
C           138.95      11.48       -52.07      
C           139.98      12.26       -52.59      
C           139.82      13.13       -53.67      
C           137.18      18.3        -59.48      
C           135.84      18.78       -59.61      
C           134.76      18.0        -59.09      
C           134.93      16.85       -58.3       
C           136.0       11.03       -55.49      
C           135.08      12.84       -53.95      
C           139.37      15.67       -59.3       
C           139.61      17.49       -57.45      
H           139.97      14.83       -56.16      
H           134.96      14.19       -56.7       
H           138.01      18.82       -59.9       
H           134.12      16.34       -57.86      
H           136.95      10.8        -52.37      
H           140.65      13.7        -54.03      
H           135.16      11.28       -56.18      
H           135.63      10.3        -54.79      
H           136.87478   10.58893    -55.96782   
H           134.19      12.8        -54.62      
H           134.89      12.14       -53.2       
H           135.19561   13.8805     -53.64652   
H           140.45      16.98       -57.02      
H           140.07      18.2        -58.19      
H           139.04642   18.06767    -56.71735   
H           140.36      15.38       -59.14      
H           138.72      14.78       -59.32      
H           139.12195   16.0283     -60.2991    
H           138.65      10.23       -50.23      
H           135.98      20.66       -60.64      
S           141.44      12.09       -51.66      
C           139.36      10.79       -50.83      
C           140.62      11.07       -50.45      
C           131.4       22.68       -62.83      
C           132.81      22.92       -62.62      
C           130.99      21.55       -62.16      
N           133.5       23.9        -63.17      
N           134.95      22.54       -62.02      
O           134.84      23.61       -62.88      
H           131.41      19.96       -60.79      
H           130.0       21.22       -62.35      
C           131.82      20.8        -61.26      
C           133.7       22.08       -61.87      
C           133.2       20.96       -61.2       
C           124.36      32.57       -73.58      
C           125.49      32.73       -72.85      
S           123.43      31.19       -72.94      
C           126.95      29.54       -67.83      
C           125.79      29.09       -68.54      
C           125.25      27.78       -68.2       
C           125.98      26.99       -67.34      
C           127.04      27.57       -66.58      
C           127.52      28.84       -66.73      
C           125.96      25.45       -67.13      
C           126.98      25.32       -66.01      
C           127.6       26.56       -65.7       
C           127.34      30.89       -68.41      
C           126.48      31.04       -69.64      
C           125.47      30.03       -69.67      
C           127.42      24.19       -65.46      
C           128.57      24.22       -64.64      
C           129.12      25.51       -64.21      
C           128.52      26.66       -64.66      
C           126.63      31.82       -70.7       
C           125.61      31.84       -71.7       
C           124.56      30.94       -71.6       
C           124.49      29.92       -70.64      
C           126.44      24.84       -68.39      
C           124.53      25.03       -66.84      
C           128.78      30.77       -68.91      
C           127.12      32.17       -67.63      
H           128.34      29.29       -66.14      
H           124.54      27.36       -68.81      
H           127.53      32.46       -70.8       
H           123.65      29.16       -70.54      
H           126.97      23.25       -65.7       
H           128.89      27.66       -64.38      
H           126.08      23.76       -68.41      
H           125.87      25.25       -69.17      
H           127.48619   25.03793    -68.62327   
H           123.86      25.27       -67.67      
H           124.38      23.96       -66.76      
H           124.14496   25.71452    -66.08417   
H           127.47      33.04       -68.07      
H           126.09      32.35       -67.53      
H           127.55614   32.21435    -66.63205   
H           129.13      31.7        -69.34      
H           129.44      30.65       -68.06      
H           128.97697   29.96102    -69.61346   
H           129.16      22.1        -64.32      
H           126.21      33.52       -73.08      
S           130.59      25.27       -63.26      
C           129.38      23.14       -64.15      
C           130.53      23.55       -63.54      
C           122.93      34.37       -77.33      
C           124.3       34.55       -76.9       
C           122.18      33.74       -76.45      
N           125.31      35.13       -77.42      
N           125.98      34.49       -75.4       
O           126.36      34.94       -76.64      
H           121.95      32.51       -74.75      
H           121.27      33.38       -76.86      
C           122.68      33.13       -75.22      
C           124.73      34.08       -75.59      
C           123.93      33.26       -74.74      
C           115.74      36.71       -92.23      
C           115.1       36.59       -91.08      
S           117.45      36.35       -91.96      
C           117.61      35.41       -85.65      
C           118.47      35.44       -86.76      
C           119.89      35.43       -86.64      
C           120.42      35.18       -85.39      
C           119.54      35.06       -84.24      
C           118.13      35.12       -84.37      
C           121.88      35.3        -84.87      
C           121.65      35.23       -83.34      
C           120.34      34.96       -83.0       
C           116.17      35.75       -86.11      
C           116.33      35.98       -87.65      
C           117.72      35.76       -87.95      
C           122.62      35.18       -82.4       
C           122.31      34.98       -81.03      
C           120.9       34.82       -80.73      
C           119.95      34.8        -81.73      
C           115.41      36.48       -88.56      
C           115.84      36.44       -89.89      
C           117.19      36.14       -90.26      
C           118.12      35.86       -89.28      
C           122.53      36.64       -85.36      
C           122.81      34.1        -85.25      
C           115.73      37.05       -85.31      
C           115.16      34.64       -85.81      
H           117.47      35.11       -83.5       
H           120.54      35.47       -87.5       
H           114.39      36.82       -88.29      
H           119.14      35.61       -89.53      
H           123.62      35.37       -82.73      
H           118.87      34.61       -81.47      
H           123.52      36.81       -84.92      
H           122.8       36.59       -86.42      
H           121.93723   37.53986    -85.19574   
H           123.44      34.38       -86.08      
H           123.46      33.85       -84.44      
H           122.29373   33.16784    -85.47945   
H           114.61      34.77       -84.88      
H           114.42      34.41       -86.55      
H           115.65305   33.66799    -85.79591   
H           115.78      36.8        -84.24      
H           114.71      37.33       -85.49      
H           116.41151   37.83689    -85.63319   
H           124.22      35.02       -79.86      
H           114.02      36.61       -91.0       
S           120.77      34.51       -79.01      
C           123.1       34.95       -79.8       
C           122.46      34.58       -78.69      
C           114.5       37.25       -96.43      
C           113.6       36.8        -95.38      
C           115.76      37.36       -95.89      
N           112.27      36.53       -95.5       
N           112.9       36.21       -93.27      
O           111.92      36.22       -94.22      
H           117.19      37.26       -94.27      
H           116.53      37.61       -96.63      
C           116.13      37.09       -94.51      
C           113.95      36.56       -93.98      
C           115.28      36.69       -93.53      
C           111.35      44.24       -110.63     
C           112.47      43.41       -110.6      
S           110.13      43.63       -109.53     
C           113.5       39.59       -106.04     
C           112.17      39.93       -106.22     
C           111.15      39.45       -105.34     
C           111.54      38.79       -104.16     
C           112.9       38.54       -103.92     
C           113.85      38.91       -104.88     
C           110.67      38.32       -102.98     
C           111.72      38.03       -101.91     
C           112.99      38.14       -102.51     
C           114.38      40.2        -107.06     
C           113.38      40.99       -107.9      
C           112.07      40.86       -107.33     
C           111.59      37.74       -100.53     
C           112.77      37.65       -99.86      
C           114.06      37.75       -100.45     
C           114.19      37.97       -101.83     
C           113.53      41.71       -109.02     
C           112.45      42.46       -109.55     
C           111.25      42.42       -108.84     
C           110.95      41.54       -107.82     
C           109.86      37.05       -103.37     
C           109.76      39.5        -102.49     
C           115.19      39.19       -107.94     
C           115.35      41.19       -106.42     
H           114.95      38.91       -104.68     
H           110.2       39.78       -105.51     
H           114.46      41.93       -109.48     
H           110.0       41.56       -107.33     
H           110.59      37.77       -100.04     
H           115.18      38.09       -102.27     
H           108.91      37.09       -102.82     
H           109.58      37.2        -104.39     
H           110.38079   36.10377    -103.2233   
H           108.93      39.71       -103.14     
H           109.24      39.15       -101.59     
H           110.24095   40.4323     -102.19403  
H           116.27      40.76       -106.0      
H           115.56      41.91       -107.24     
H           114.87114   41.78321    -105.64096  
H           115.96      38.93       -107.25     
H           115.68      39.75       -108.69     
H           114.66718   38.29476    -108.27661  
H           111.91      37.46       -97.81      
H           113.3       43.55       -111.29     
S           115.31      37.61       -99.21      
C           112.82      37.49       -98.42      
C           114.1       37.47       -97.89      
C           110.33      47.99       -112.55     
C           111.67      47.58       -112.39     
C           109.45      47.1        -112.12     
N           112.82      48.18       -112.77     
N           113.31      46.11       -112.0      
O           113.8       47.24       -112.59     
H           109.02      45.47       -110.81     
H           108.42      47.32       -112.13     
C           109.79      45.91       -111.39     
C           112.03      46.33       -111.82     
C           111.07      45.51       -111.23     
C           102.36      62.27       -114.95     
C           101.93      61.01       -115.38     
S           103.95      62.13       -114.22     
C           105.38      55.95       -115.45     
C           106.04      57.1        -115.05     
C           107.39      57.02       -114.59     
C           108.02      55.73       -114.64     
C           107.32      54.57       -115.05     
C           106.02      54.65       -115.44     
C           109.44      55.32       -114.14     
C           109.34      53.77       -114.26     
C           108.09      53.39       -114.72     
C           103.94      56.33       -115.82     
C           103.88      57.84       -115.52     
C           105.09      58.24       -114.94     
C           110.22      52.83       -113.67     
C           109.87      51.48       -113.6      
C           108.55      51.14       -114.05     
C           107.65      52.04       -114.58     
C           102.87      58.67       -115.82     
C           102.91      59.99       -115.28     
C           104.15      60.48       -114.73     
C           105.21      59.62       -114.59     
C           109.69      55.79       -112.71     
C           110.38      55.78       -115.28     
C           103.07      55.43       -114.9      
C           103.6       56.03       -117.28     
H           105.42      53.78       -115.78     
H           107.92      57.81       -114.11     
H           101.93      58.32       -116.27     
H           106.07      59.96       -114.1      
H           111.21      53.13       -113.37     
H           106.75      51.66       -114.96     
H           109.87      56.87       -112.6      
H           110.58      55.34       -112.44     
H           108.90201   55.41711    -112.05569  
H           109.91      55.61       -116.28     
H           111.22      55.08       -115.26     
H           110.73226   56.8086     -115.2025   
H           103.67      54.94       -117.33     
H           102.6       56.5        -117.43     
H           104.30269   56.4889     -117.97552  
H           103.62      54.5        -114.7      
H           102.05      55.25       -115.2      
H           103.01276   55.9452     -113.94115  
H           111.49      50.56       -112.48     
H           100.98      60.86       -115.83     
S           108.3       49.43       -113.85     
C           110.57      50.36       -113.13     
C           109.85      49.22       -113.11     
C           100.3       66.06       -114.78     
C           99.6        64.9        -115.15     
C           101.64      65.96       -114.54     
N           98.37       64.74       -115.44     
N           99.32       62.75       -115.51     
O           98.15       63.42       -115.76     
H           103.39      64.74       -114.59     
H           102.2       66.82       -114.33     
C           102.27      64.68       -114.61     
C           100.22      63.64       -115.16     
C           101.62      63.57       -114.87     
C           98.34       82.57       -116.37     
C           98.02       81.63       -117.33     
S           98.81       81.62       -114.98     
C           98.28       75.63       -117.08     
C           98.67       76.37       -115.93     
C           99.15       75.71       -114.77     
C           99.08       74.36       -114.74     
C           98.77       73.6        -115.9      
C           98.35       74.21       -117.04     
C           99.5        73.45       -113.58     
C           99.2        72.08       -114.17     
C           98.9        72.17       -115.54     
C           97.92       76.57       -118.3      
C           98.06       77.95       -117.54     
C           98.52       77.77       -116.17     
C           99.65       70.92       -113.6      
C           99.57       69.7        -114.26     
C           99.26       69.79       -115.6      
C           98.99       70.97       -116.29     
C           97.92       79.21       -118.03     
C           98.11       80.21       -117.07     
C           98.6        79.99       -115.79     
C           98.8        78.76       -115.28     
C           98.66       73.75       -112.3      
C           100.98      73.6        -113.25     
C           96.46       76.26       -118.75     
C           98.89       76.5        -119.47     
H           98.0        73.57       -117.79     
H           99.34       76.3        -113.86     
H           97.75       79.46       -119.09     
H           99.1        78.53       -114.27     
H           99.87       70.92       -112.5      
H           98.72       70.99       -117.3      
H           98.72       74.86       -112.05     
H           97.63       73.53       -112.5      
H           98.8857     73.21652    -111.37666  
H           101.1       74.57       -112.69     
H           101.42      72.88       -112.55     
H           101.64291   73.50832    -114.11037  
H           98.27       76.19       -120.36     
H           99.23       77.59       -119.45     
H           99.82194    75.93938    -119.39719  
H           96.37       75.26       -119.07     
H           96.32       76.91       -119.63     
H           95.73021    76.41741    -117.95582  
H           100.13      68.12       -112.79     
H           97.52       81.99       -118.25     
S           99.14       68.15       -116.25     
C           99.91       68.4        -113.83     
C           99.78       67.42       -114.8      
C           97.51       86.91       -116.08     
C           96.64       86.04       -116.85     
C           98.59       86.23       -115.48     
N           95.44       86.24       -117.34     
N           95.88       84.07       -117.51     
O           94.97       85.06       -117.76     
H           99.79       84.56       -115.06     
H           99.24       86.8        -114.81     
C           98.84       84.84       -115.59     
C           96.93       84.63       -116.9      
C           98.08       83.97       -116.26     
H           124.66      32.46       18.52       
H           97.08       87.81       -115.64     
