612

C           136.08      4.36        18.58       
C           135.34      5.44        18.94       
S           137.66      4.6         19.26       
C           137.54      10.4        21.71       
C           138.47      9.35        21.61       
C           139.78      9.44        22.04       
C           140.04      10.56       22.79       
C           139.11      11.65       22.87       
C           137.93      11.64       22.25       
C           141.14      10.81       23.81       
C           140.91      12.21       24.31       
C           139.7       12.7        23.74       
C           136.19      10.07       20.99       
C           136.46      8.59        20.62       
C           137.82      8.21        20.96       
C           141.68      12.96       25.14       
C           141.18      14.24       25.52       
C           139.96      14.68       25.06       
C           139.13      13.92       24.14       
C           135.54      7.68        20.08       
C           136.02      6.51        19.6        
C           137.31      6.14        19.89       
C           138.17      6.9         20.66       
C           142.52      10.66       23.12       
C           140.99      9.87        25.05       
C           136.05      10.96       19.77       
C           134.9       10.19       21.9        
H           137.22      12.48       22.24       
H           140.39      8.52        21.99       
H           134.49      8.0         19.82       
H           139.17      6.51        20.9        
H           142.63      12.59       25.52       
H           138.11      14.25       23.86       
H           142.73      9.62        23.02       
H           143.3       11.08       23.78       
H           142.58416   11.05919    22.10776    
H           140.06      10.06       25.6        
H           141.73      10.13       25.78       
H           141.11802   8.79601     24.91486    
H           134.52      11.18       21.9        
H           134.04      9.6         21.62       
H           135.05919   9.7955      22.90356    
H           136.11      11.99       20.13       
H           135.11      10.68       19.34       
H           136.87362   10.79528    19.07529    
H           142.91      15.07       26.72       
H           134.26      5.49        18.63       
S           139.61      16.3        25.59       
C           141.9       15.26       26.28       
C           141.22      16.46       26.34       
C           135.31      1.51        15.27       
C           134.22      2.22        15.9        
C           136.48      1.74        15.83       
N           132.94      2.15        15.63       
N           133.26      3.56        17.32       
O           132.32      3.0         16.53       
H           137.74      2.75        17.22       
H           137.36      1.26        15.38       
C           136.72      2.64        16.9        
C           134.48      3.15        16.96       
C           135.74      3.33        17.58       
C           133.16      -5.74       0.2         
C           132.18      -5.08       0.93        
S           134.6       -6.02       1.23        
C           132.93      -2.73       6.49        
C           134.04      -3.58       6.06        
C           135.13      -3.81       6.81        
C           135.26      -3.1        8.0         
C           134.27      -2.21       8.43        
C           133.1       -1.99       7.65        
C           136.26      -3.19       9.11        
C           135.86      -2.09       10.14       
C           134.63      -1.57       9.73        
C           131.74      -2.74       5.48        
C           132.49      -3.43       4.33        
C           133.72      -3.93       4.72        
C           136.38      -1.71       11.39       
C           135.72      -0.77       12.18       
C           134.52      -0.24       11.68       
C           133.99      -0.63       10.43       
C           131.9       -3.79       3.17        
C           132.64      -4.53       2.19        
C           133.92      -4.99       2.53        
C           134.44      -4.74       3.85        
C           137.64      -2.84       8.54        
C           136.25      -4.58       9.8         
C           131.42      -1.21       5.22        
C           130.54      -3.52       5.94        
H           132.3       -1.29       7.92        
H           136.06      -4.28       6.4         
H           130.9       -3.43       2.97        
H           135.37      -5.19       4.11        
H           137.29      -2.21       11.68       
H           132.99      -0.31       10.13       
H           137.97      -3.55       7.77        
H           138.35      -2.97       9.32        
H           137.79827   -1.78966    8.2954      
H           135.21      -4.82       10.15       
H           136.88      -4.49       10.66       
H           136.58026   -5.4443     9.2238      
H           129.65      -2.98       6.03        
H           130.36      -4.23       5.16        
H           130.71212   -4.19412    6.77907     
H           130.83      -0.97       6.07        
H           132.35      -0.71       5.18        
H           130.739     -1.03613    4.38687     
H           136.93      -0.49       14.06       
H           131.18      -4.82       0.56        
S           133.71      0.67        12.96       
C           136.08      -0.18       13.5        
C           135.17      0.7         14.01       
C           133.29      -7.19       -3.94       
C           132.19      -6.36       -3.47       
C           134.26      -7.44       -3.04       
N           131.25      -5.77       -4.17       
N           131.03      -5.36       -1.88       
O           130.5       -5.13       -3.14       
H           134.99      -7.32       -1.05       
H           135.07      -8.04       -3.29       
C           134.17      -7.01       -1.68       
C           132.11      -6.01       -2.09       
C           133.14      -6.26       -1.12       
C           136.17      -12.3       -19.45      
C           136.47      -13.23      -18.52      
S           135.48      -10.82      -18.85      
C           135.61      -11.55      -12.72      
C           135.21      -10.62      -13.64      
C           134.71      -9.38       -13.38      
C           134.54      -9.09       -12.02      
C           134.9       -10.0       -11.01      
C           135.46      -11.27      -11.34      
C           133.62      -7.98       -11.49      
C           133.88      -8.19       -9.95       
C           134.47      -9.42       -9.68       
C           136.11      -12.89      -13.31      
C           135.9       -12.59      -14.81      
C           135.42      -11.23      -14.95      
C           133.46      -7.29       -9.0        
C           133.6       -7.67       -7.68       
C           134.24      -8.91       -7.38       
C           134.72      -9.81       -8.36       
C           136.31      -13.27      -15.89      
C           136.09      -12.71      -17.22      
C           135.57      -11.38      -17.25      
C           135.2       -10.65      -16.17      
C           132.13      -8.42       -11.92      
C           133.99      -6.66       -12.08      
C           135.17      -13.98      -12.8       
C           137.6       -13.22      -12.99      
H           135.84      -12.01      -10.62      
H           134.54      -8.7        -14.22      
H           136.5       -14.32      -15.73      
H           134.82      -9.67       -16.33      
H           133.1       -6.28       -9.21       
H           135.1       -10.77      -8.08       
H           132.07      -8.75       -12.92      
H           131.87      -9.34       -11.39      
H           131.32841   -7.75662    -11.59522   
H           133.62      -6.48       -13.03      
H           133.5       -5.79       -11.62      
H           134.99283   -6.32091    -11.82027   
H           137.78      -13.68      -12.05      
H           138.0       -13.96      -13.71      
H           138.23215   -12.33215   -13.00421   
H           135.15      -13.94      -11.72      
H           134.14      -13.68      -13.13      
H           135.23377   -14.92952   -13.33145   
H           132.69      -6.03       -6.4        
H           136.84      -14.22      -18.72      
S           134.35      -9.08       -5.62       
C           133.17      -7.02       -6.46       
C           133.54      -7.59       -5.32       
C           136.08      -12.28      -23.94      
C           136.17      -13.53      -23.23      
C           136.24      -11.23      -23.09      
N           136.1       -14.77      -23.65      
N           136.27      -14.8       -21.38      
O           136.23      -15.55      -22.56      
H           136.33      -10.33      -21.18      
H           136.17      -10.22      -23.47      
C           136.21      -11.26      -21.67      
C           136.15      -13.54      -21.77      
C           136.22      -12.38      -20.91      
C           139.5       -5.93       -38.03      
C           138.88      -5.28       -37.04      
S           139.49      -7.7        -37.78      
C           136.12      -8.25       -32.4       
C           136.63      -9.12       -33.4       
C           136.58      -10.52      -33.23      
C           136.06      -11.04      -32.08      
C           135.67      -10.12      -31.08      
C           135.61      -8.74       -31.24      
C           136.1       -12.48      -31.53      
C           135.53      -12.23      -30.12      
C           135.56      -10.83      -29.85      
C           136.17      -6.79       -32.86      
C           137.01      -6.9        -34.11      
C           137.34      -8.26       -34.45      
C           135.39      -13.06      -28.96      
C           135.56      -12.46      -27.67      
C           135.63      -11.05      -27.5       
C           135.59      -10.24      -28.63      
C           137.46      -5.88       -34.88      
C           138.25      -6.17       -36.07      
C           138.51      -7.56       -36.34      
C           138.04      -8.64       -35.58      
C           137.49      -13.09      -31.54      
C           135.09      -13.35      -32.34      
C           136.8       -5.87       -31.75      
C           134.81      -6.27       -33.28      
H           135.27      -8.11       -30.46      
H           137.03      -11.16      -34.0       
H           137.33      -4.89       -34.59      
H           138.19      -9.64       -35.83      
H           135.3       -14.15      -29.09      
H           135.85      -9.16       -28.51      
H           137.52      -13.89      -30.82      
H           137.52      -13.63      -32.43      
H           138.34445   -12.44378   -31.33895   
H           135.25      -13.24      -33.41      
H           135.1       -14.39      -32.05      
H           134.05569   -13.05954   -32.15581   
H           134.26      -5.75       -32.46      
H           134.94      -5.54       -34.05      
H           134.15159   -7.03129    -33.69837   
H           136.13      -5.78       -30.86      
H           136.84      -4.91       -32.11      
H           137.84804   -6.10527    -31.56463   
H           135.62      -14.14      -26.24      
H           138.84      -4.23       -36.89      
S           136.02      -10.53      -25.87      
C           135.63      -13.03      -26.39      
C           135.85      -12.15      -25.36      
C           141.35      -4.29       -41.78      
C           141.23      -3.51       -40.54      
C           141.04      -5.58       -41.58      
N           141.58      -2.28       -40.4       
N           140.6       -2.93       -38.4       
O           141.32      -1.93       -39.05      
H           140.15      -7.06       -40.35      
H           141.06      -6.26       -42.41      
C           140.55      -6.02       -40.37      
C           140.69      -3.99       -39.26      
C           140.29      -5.33       -39.15      
C           135.86      -1.77       -55.68      
C           136.59      -2.88       -55.66      
S           136.5       -0.44       -54.81      
C           140.89      -3.39       -51.42      
C           140.38      -2.16       -51.61      
C           140.66      -1.09       -50.69      
C           141.16      -1.37       -49.45      
C           141.49      -2.7        -49.18      
C           141.51      -3.67       -50.19      
C           141.21      -0.49       -48.2       
C           141.67      -1.49       -47.15      
C           141.74      -2.76       -47.73      
C           140.5       -4.31       -52.5       
C           139.54      -3.47       -53.33      
C           139.54      -2.14       -52.74      
C           141.88      -1.29       -45.8       
C           141.92      -2.41       -45.0       
C           141.91      -3.65       -45.59      
C           141.97      -3.84       -46.97      
C           138.68      -3.78       -54.32      
C           137.74      -2.8        -54.78      
C           137.76      -1.49       -54.2       
C           138.63      -1.15       -53.11      
C           139.81      0.11        -47.84      
C           142.24      0.64        -48.39      
C           139.81      -5.59       -52.02      
C           141.74      -4.66       -53.38      
H           141.73      -4.68       -50.07      
H           140.29      -0.08       -50.83      
H           138.6       -4.82       -54.73      
H           138.56      -0.2        -52.62      
H           141.79      -0.3        -45.38      
H           142.03      -4.84       -47.42      
H           139.56      0.93        -48.53      
H           139.95      0.53        -46.81      
H           139.12655   -0.7372     -47.78305   
H           141.88      1.45        -49.01      
H           142.36      1.27        -47.51      
H           143.21162   0.33317     -48.77719   
H           142.36      -5.46       -52.95      
H           141.37      -4.94       -54.33      
H           142.49345   -3.90655    -53.60962   
H           139.72      -6.36       -52.77      
H           140.52      -6.12       -51.35      
H           138.89082   -5.40474    -51.46422   
H           141.83      -1.67       -42.87      
H           136.28      -3.78       -56.16      
S           141.71      -4.93       -44.4       
C           141.81      -2.52       -43.56      
C           141.69      -3.79       -43.06      
C           132.58      -0.57       -58.46      
C           133.18      -1.87       -58.49      
C           133.13      0.2         -57.44      
N           132.86      -2.98       -59.19      
N           134.54      -3.55       -57.82      
O           133.7       -3.99       -58.82      
H           134.37      0.61        -55.75      
H           132.75      1.22        -57.39      
C           134.11      -0.2        -56.48      
C           134.25      -2.27       -57.54      
C           134.71      -1.43       -56.52      
C           122.03      7.22        -68.84      
C           122.52      7.84        -67.66      
S           122.43      5.52        -68.87      
C           126.07      4.79        -63.61      
C           125.78      4.15        -64.82      
C           126.39      2.91        -65.06      
C           127.36      2.48        -64.21      
C           127.56      3.13        -62.99      
C           126.94      4.31        -62.65      
C           128.44      1.4         -64.57      
C           128.91      1.2         -63.15      
C           128.46      2.25        -62.25      
C           125.26      6.1         -63.5       
C           124.5       6.15        -64.9       
C           124.84      4.98        -65.63      
C           129.79      0.25        -62.67      
C           130.3       0.35        -61.32      
C           129.9       1.44        -60.53      
C           129.01      2.42        -60.98      
C           123.81      7.17        -65.5       
C           123.2       6.96        -66.76      
C           123.38      5.68        -67.39      
C           124.19      4.67        -66.85      
C           129.41      2.0         -65.58      
C           127.76      0.06        -65.13      
C           126.12      7.32        -63.28      
C           124.21      6.0         -62.37      
H           127.24      4.92        -61.79      
H           126.25      2.42        -66.04      
H           123.66      8.14        -65.03      
H           124.43      3.75        -67.32      
H           130.18      -0.49       -63.32      
H           128.6       3.19        -60.36      
H           128.9       2.04        -66.56      
H           129.61      3.05        -65.31      
H           130.40485   1.55549     -65.55178   
H           127.12      0.26        -66.01      
H           128.47      -0.71       -65.37      
H           127.06126   -0.38866    -64.42391   
H           124.64      6.51        -61.5       
H           123.26      6.61        -62.64      
H           123.84942   4.99759     -62.13923   
H           125.49      8.26        -63.13      
H           126.74      7.1         -62.41      
H           126.79783   7.4498      -64.12368   
H           131.78      -1.27       -61.13      
H           122.4       8.96        -67.45      
S           130.72      1.38        -58.98      
C           131.25      -0.47       -60.66      
C           131.63      -0.05       -59.4       
C           120.78      8.64        -72.81      
C           121.35      9.57        -71.88      
C           120.46      7.44        -72.29      
N           121.77      10.83       -72.04      
N           122.16      10.2        -69.87      
O           122.35      11.19       -70.82      
H           120.57      5.99        -70.59      
H           120.05      6.63        -72.92      
C           120.78      6.97        -70.9       
C           121.66      9.16        -70.48      
C           121.43      7.82        -70.01      
C           121.95      8.58        -89.35      
C           121.77      7.51        -88.52      
S           122.03      10.04       -88.42      
C           121.01      7.95        -82.53      
C           121.37      9.23        -83.08      
C           121.6       10.43       -82.33      
C           121.35      10.37       -80.98      
C           120.97      9.15        -80.42      
C           120.82      7.93        -81.15      
C           121.39      11.45       -79.93      
C           121.22      10.66       -78.62      
C           121.05      9.27        -78.98      
C           120.73      6.82        -83.49      
C           121.24      7.54        -84.77      
C           121.42      9.0         -84.5       
C           121.26      10.98       -77.28      
C           121.02      9.97        -76.32      
C           120.88      8.64        -76.71      
C           120.93      8.25        -78.05      
C           121.36      7.04        -86.02      
C           121.57      7.9         -87.15      
C           121.68      9.3         -86.91      
C           121.62      9.88        -85.61      
C           120.12      12.42       -80.16      
C           122.77      12.16       -79.89      
C           119.23      6.53        -83.48      
C           121.63      5.56        -83.39      
H           120.58      7.03        -80.66      
H           121.68      11.37       -82.82      
H           121.31      5.96        -86.11      
H           121.74      10.91       -85.35      
H           121.36      12.0        -76.91      
H           120.74      7.18        -78.32      
H           120.4       13.29       -80.78      
H           119.31      11.85       -80.67      
H           119.59809   12.73738    -79.25724   
H           122.89      12.85       -80.73      
H           122.92      12.79       -79.0       
H           123.56898   11.4186     -79.8972    
H           121.24      4.71        -84.01      
H           122.61      5.9         -83.75      
H           121.75705   5.22827     -82.35951   
H           118.91      6.0         -82.52      
H           118.96      5.77        -84.33      
H           118.57403   7.39192     -83.60204   
H           121.03      11.0        -74.44      
H           121.81      6.45        -88.8       
S           120.51      7.64        -75.33      
C           120.89      10.07       -74.88      
C           120.67      8.94        -74.2       
C           122.44      9.01        -93.73      
C           122.52      7.7         -93.1       
C           122.28      10.03       -92.78      
N           122.54      6.57        -93.62      
N           122.33      6.26        -91.42      
O           122.44      5.68        -92.62      
H           122.06      10.74       -90.83      
H           122.22      11.03       -93.19      
C           122.27      9.88        -91.39      
C           122.35      7.56        -91.68      
C           122.23      8.69        -90.79      
C           116.24      12.83       -108.56     
C           116.66      13.77       -107.64     
S           116.66      11.25       -108.0      
C           119.7       12.34       -102.59     
C           119.3       11.21       -103.37     
C           119.71      9.94        -103.06     
C           120.52      9.74        -101.92     
C           120.78      10.88       -101.04     
C           120.45      12.15       -101.48     
C           120.87      8.48        -101.11     
C           121.57      9.05        -99.88      
C           121.4       10.44       -99.75      
C           119.24      13.63       -103.26     
C           118.51      13.17       -104.47     
C           118.6       11.76       -104.54     
C           122.04      8.4         -98.77      
C           122.2       9.07        -97.54      
C           121.95      10.43       -97.45      
C           121.63      11.21       -98.59      
C           117.78      13.94       -105.39     
C           117.33      13.27       -106.53     
C           117.5       11.89       -106.64     
C           118.11      11.13       -105.66     
C           121.84      7.63        -102.04     
C           119.64      7.61        -100.73     
C           120.45      14.48       -103.68     
C           118.32      14.39       -102.15     
H           120.73      12.99       -100.85     
H           119.35      9.2         -103.67     
H           117.8       15.07       -105.37     
H           118.29      10.08       -105.95     
H           122.21      7.38        -98.79      
H           121.37      12.29       -98.56      
H           121.79      6.56        -101.84     
H           121.49      7.82        -103.06     
H           122.8786    7.94451     -101.9376   
H           119.26      7.05        -101.58     
H           120.05      6.8         -100.07     
H           118.82473   8.18069     -100.28531  
H           118.96      14.85       -101.39     
H           117.68      15.27       -102.53     
H           117.6504    13.70552    -101.6292   
H           121.07      14.74       -102.82     
H           120.06      15.43       -104.07     
H           121.04746   13.9937     -104.45114  
H           122.41      7.34        -96.09      
H           116.36      14.81       -107.71     
S           122.2       10.93       -95.83      
C           122.39      8.4         -96.23      
C           122.41      9.26        -95.19      
C           112.85      12.99       -111.5      
C           113.17      14.0        -110.63     
C           113.76      11.98       -111.41     
N           112.64      15.16       -110.68     
N           114.29      15.31       -109.17     
O           113.2       15.97       -109.71     
H           115.48      11.08       -110.52     
H           113.73      11.24       -112.13     
C           114.85      11.97       -110.45     
C           114.3       14.11       -109.76     
C           115.17      12.98       -109.58     
C           99.35       7.23        -118.72     
C           100.61      7.01        -119.22     
S           99.33       8.68        -117.71     
C           105.45      10.17       -117.34     
C           104.17      10.64       -116.8      
C           104.2       11.63       -115.85     
C           105.36      12.07       -115.27     
C           106.54      11.56       -115.76     
C           106.63      10.67       -116.84     
C           105.7       13.29       -114.36     
C           107.21      13.13       -114.25     
C           107.68      12.05       -114.98     
C           105.2       8.91        -118.17     
C           103.73      8.86        -118.32     
C           103.13      9.87        -117.42     
C           108.17      13.82       -113.43     
C           109.47      13.34       -113.24     
C           109.87      12.2        -114.03     
C           108.98      11.67       -114.99     
C           102.98      8.07        -119.06     
C           101.59      7.95        -118.72     
C           101.03      8.87        -117.77     
C           101.74      9.93        -117.2      
C           105.05      13.26       -112.9      
C           105.36      14.65       -115.13     
C           105.72      7.68        -117.39     
C           105.83      9.23        -119.54     
H           107.64      10.4        -117.27     
H           103.28      11.88       -115.44     
H           103.29      7.41        -119.88     
H           101.32      10.53       -116.42     
H           108.05      14.84       -113.13     
H           109.25      10.89       -115.68     
H           103.98      13.29       -112.98     
H           105.28      14.21       -112.3      
H           105.357     12.4461     -112.24317  
H           106.1       14.83       -115.97     
H           105.54      15.36       -114.41     
H           104.33554   14.81363    -115.46437  
H           105.36      8.7         -120.31     
H           105.67      10.25       -119.79     
H           106.89533   9.0012      -119.5686   
H           106.8       7.77        -117.34     
H           105.44      6.78        -117.94     
H           105.30109   7.55433     -116.39159  
H           110.32      14.61       -111.73     
H           100.86      6.28        -119.99     
S           111.54      11.83       -113.66     
C           110.42      13.74       -112.37     
C           111.62      13.0        -112.34     
C           95.35       5.71        -119.54     
C           96.33       5.88        -120.57     
C           95.82       5.98        -118.28     
N           96.1        5.74        -121.86     
N           98.33       6.28        -121.49     
O           97.32       5.93        -122.37     
H           97.47       6.59        -116.95     
H           95.2        5.83        -117.38     
C           97.15       6.44        -118.0      
C           97.69       6.22        -120.31     
C           98.06       6.6         -118.98     
C           78.89       3.96        -119.84     
C           79.67       3.45        -118.79     
S           80.01       4.52        -121.09     
C           85.85       3.24        -118.95     
C           85.26       3.66        -120.16     
C           85.99       4.11        -121.23     
C           87.37       4.24        -121.18     
C           87.9        3.99        -119.88     
C           87.18       3.44        -118.79     
C           88.2        5.18        -121.96     
C           89.51       5.04        -121.24     
C           89.29       4.44        -120.0      
C           84.84       2.92        -117.92     
C           83.51       3.11        -118.63     
C           83.82       3.52        -119.94     
C           90.82       5.25        -121.65     
C           91.83       5.31        -120.67     
C           91.53       4.77        -119.41     
C           90.29       4.31        -119.05     
C           82.2        2.93        -118.24     
C           81.09       3.4         -119.05     
C           81.43       3.79        -120.37     
C           82.77       3.92        -120.77     
C           87.55       6.58        -122.09     
C           88.32       4.43        -123.3      
C           85.02       3.78        -116.62     
C           84.93       1.44        -117.38     
H           87.61       3.14        -117.86     
H           85.45       4.37        -122.17     
H           81.95       2.65        -117.21     
H           82.94       4.34        -121.75     
H           90.87       5.78        -122.6      
H           90.15       3.84        -118.11     
H           86.56       6.54        -122.56     
H           87.31       6.82        -121.07     
H           88.22788    7.36492     -122.42537  
H           87.26       4.43        -123.69     
H           88.88       4.83        -124.06     
H           88.48497    3.35409     -123.24262  
H           85.16       1.33        -116.32     
H           83.93       0.98        -117.47     
H           85.62531    0.85706     -117.98401  
H           85.95       3.54        -116.1      
H           84.28       3.55        -115.87     
H           85.10185    4.83722     -116.87237  
H           93.64       6.1         -121.74     
H           79.27       3.13        -117.88     
S           92.97       4.86        -118.39     
C           93.2        5.7         -120.81     
C           93.97       5.42        -119.73     
C           74.59       4.74        -120.11     
C           75.1        3.88        -119.1      
C           75.54       5.15        -121.07     
N           74.53       3.37        -118.01     
N           76.68       2.92        -117.94     
O           75.53       2.65        -117.33     
H           77.56       5.36        -121.75     
H           75.15       5.94        -121.78     
C           76.88       4.86        -121.04     
C           76.53       3.62        -119.09     
C           77.45       4.14        -120.05     
H           141.62      17.43       26.54       
H           73.56       5.09        -120.1      
