612

C           119.8       12.12       2.55        
C           120.18      10.79       2.72        
S           118.34      12.56       3.39        
C           117.47      7.33        6.93        
C           116.82      8.53        6.72        
C           115.7       8.9         7.48        
C           115.26      8.03        8.44        
C           115.98      6.83        8.72        
C           117.08      6.49        7.96        
C           114.01      7.95        9.32        
C           114.21      6.66        10.13       
C           115.42      6.01        9.84        
C           118.67      7.07        5.97        
C           118.63      8.36        5.16        
C           117.58      9.22        5.63        
C           113.3       6.09        11.03       
C           113.66      4.83        11.65       
C           114.87      4.25        11.32       
C           115.8       4.78        10.37       
C           119.44      8.75        4.08        
C           119.32      10.09       3.62        
C           118.23      10.93       4.06        
C           117.38      10.5        5.03        
C           112.62      8.0         8.5         
C           114.06      9.14        10.34       
C           118.57      5.77        5.1         
C           119.95      7.07        6.87        
H           117.58      5.55        8.24        
H           115.16      9.76        7.33        
H           120.2       8.13        3.76        
H           116.65      11.16       5.4         
H           112.47      6.7         11.43       
H           116.75      4.34        10.11       
H           112.51      9.02        8.05        
H           111.81      7.81        9.12        
H           112.655     7.25094     7.70894     
H           114.98      9.1         10.83       
H           113.27      8.99        11.03       
H           114.00309   10.15017    9.93451     
H           119.73      6.56        7.81        
H           120.73      6.48        6.41        
H           120.35546   8.06917     7.02929     
H           118.36      4.91        5.75        
H           119.6       5.58        4.68        
H           117.76092   5.86146     4.37535     
H           112.0       4.42        13.22       
H           121.09      10.3        2.32        
S           114.94      2.68        12.04       
C           112.96      4.16        12.75       
C           113.48      2.91        13.0        
C           121.69      15.26       0.03        
C           122.42      14.17       0.48        
C           120.46      15.33       0.53        
N           123.67      13.87       0.32        
N           122.94      12.22       1.59        
O           124.03      12.75       1.0         
H           118.79      14.35       1.49        
H           119.8       16.22       0.34        
C           119.87      14.24       1.29        
C           121.91      13.08       1.28        
C           120.53      13.13       1.76        
C           124.08      27.61       -10.66      
C           122.91      27.44       -10.01      
S           125.3       26.4        -10.25      
C           122.15      22.76       -6.18       
C           123.43      22.92       -6.67       
C           124.54      22.12       -6.3        
C           124.29      21.07       -5.42       
C           122.94      20.88       -4.95       
C           121.9       21.75       -5.29       
C           125.31      20.14       -4.73       
C           124.35      19.31       -3.84       
C           123.01      19.76       -3.94       
C           121.19      23.89       -6.59       
C           122.1       24.59       -7.62       
C           123.37      24.04       -7.55       
C           124.61      18.22       -3.0        
C           123.49      17.67       -2.31       
C           122.21      18.19       -2.49       
C           121.96      19.28       -3.21       
C           121.89      25.64       -8.48       
C           122.88      26.14       -9.35       
C           124.19      25.52       -9.18       
C           124.47      24.47       -8.32       
C           126.24      21.01       -3.9        
C           126.01      19.17       -5.73       
C           120.94      24.67       -5.25       
C           119.85      23.35       -7.23       
H           120.94      21.66       -4.77       
H           125.53      22.34       -6.74       
H           121.02      26.21       -8.35       
H           125.46      24.01       -8.25       
H           125.56      17.86       -2.85       
H           120.96      19.63       -3.35       
H           126.98      21.53       -4.48       
H           126.82      20.25       -3.22       
H           125.7698    21.73667    -3.23745    
H           125.26      18.51       -6.15       
H           126.56      18.46       -5.13       
H           126.69044   19.62131    -6.4521     
H           119.34      22.73       -6.5        
H           119.19      24.09       -7.37       
H           119.95747   22.92013    -8.22587    
H           119.97      24.49       -4.81       
H           121.57      24.27       -4.49       
H           121.14518   25.73989    -5.28664    
H           124.26      15.96       -0.98       
H           122.14      28.19       -10.0       
S           120.99      17.42       -1.48       
C           123.41      16.52       -1.37       
C           122.15      16.28       -0.86       
C           124.74      30.99       -13.45      
C           125.9       30.22       -12.99      
C           123.61      30.48       -12.99      
N           127.13      30.11       -13.35      
N           126.79      28.64       -11.7       
O           127.72      29.24       -12.52      
H           122.43      29.02       -11.94      
H           122.66      30.92       -13.34      
C           123.43      29.32       -12.18      
C           125.69      29.17       -11.96      
C           124.41      28.75       -11.5       
C           128.84      37.19       -27.81      
C           129.54      37.32       -26.61      
S           127.24      36.61       -27.33      
C           127.68      36.07       -20.92      
C           126.78      35.87       -21.98      
C           125.48      35.42       -21.72      
C           125.2       35.1        -20.4       
C           126.14      35.32       -19.38      
C           127.41      35.75       -19.61      
C           123.87      34.62       -19.81      
C           124.35      34.22       -18.46      
C           125.62      34.81       -18.2       
C           129.06      36.5        -21.51      
C           128.67      36.69       -23.01      
C           127.37      36.27       -23.26      
C           123.69      33.57       -17.47      
C           124.31      33.38       -16.23      
C           125.68      33.85       -16.03      
C           126.32      34.61       -16.99      
C           129.43      37.05       -24.1       
C           128.87      37.07       -25.38      
C           127.6       36.65       -25.58      
C           126.8       36.23       -24.53      
C           123.3       33.4        -20.51      
C           122.73      35.66       -19.67      
C           130.23      35.52       -21.27      
C           129.34      37.88       -20.82      
H           128.17      35.96       -18.86      
H           124.72      35.22       -22.5       
H           130.44      37.34       -23.93      
H           125.78      35.91       -24.72      
H           122.69      33.13       -17.77      
H           127.32      34.9        -16.81      
H           122.35      33.01       -20.14      
H           122.93      33.61       -21.51      
H           124.02296   32.58667    -20.57256   
H           122.4       35.87       -20.66      
H           121.89      35.27       -19.09      
H           123.04527   36.62015    -19.26158   
H           129.37      37.58       -19.74      
H           130.14      38.36       -21.15      
H           128.58015   38.66136    -20.83434   
H           130.43      35.27       -20.24      
H           129.86      34.59       -21.67      
H           131.15286   35.91256    -21.697     
H           122.95      31.95       -15.19      
H           130.59      37.52       -26.59      
S           126.34      33.14       -14.62      
C           123.88      32.52       -15.17      
C           124.94      32.08       -14.44      
C           130.29      37.39       -31.99      
C           131.09      36.79       -30.96      
C           129.1       37.84       -31.6       
N           132.32      36.42       -30.93      
N           131.58      36.21       -28.84      
O           132.6       35.89       -29.71      
H           127.6       38.1        -30.13      
H           128.44      38.45       -32.28      
C           128.56      37.67       -30.27      
C           130.6       36.73       -29.62      
C           129.28      37.13       -29.19      
C           134.75      45.42       -45.67      
C           133.59      45.6        -45.03      
S           135.99      44.73       -44.62      
C           132.23      42.89       -39.83      
C           133.54      42.73       -40.26      
C           134.39      41.8        -39.67      
C           133.86      41.01       -38.61      
C           132.56      41.28       -38.17      
C           131.7       42.11       -38.86      
C           134.54      39.86       -37.86      
C           133.36      39.58       -36.87      
C           132.22      40.37       -37.16      
C           131.54      43.91       -40.68      
C           132.7       44.41       -41.56      
C           133.89      43.7        -41.33      
C           133.3       38.54       -35.94      
C           132.11      38.38       -35.15      
C           130.97      39.2        -35.44      
C           131.0       40.13       -36.47      
C           132.46      45.1        -42.72      
C           133.53      45.1        -43.67      
C           134.81      44.64       -43.27      
C           135.05      43.99       -42.06      
C           135.79      40.52       -37.23      
C           134.94      38.63       -38.72      
C           130.97      45.12       -39.82      
C           130.54      43.31       -41.69      
H           130.62      41.97       -38.7       
H           135.33      41.66       -40.02      
H           131.5       45.55       -43.02      
H           136.02      43.49       -41.8       
H           134.21      37.98       -35.83      
H           130.07      40.66       -36.71      
H           136.55      39.74       -37.06      
H           136.4       41.09       -38.02      
H           135.60764   41.15124    -36.3603    
H           135.64      38.97       -39.47      
H           135.27      37.81       -38.1       
H           134.16224   38.1547     -39.31773   
H           130.06      44.1        -42.23      
H           131.19      42.74       -42.39      
H           129.76893   42.64504    -41.30093   
H           130.43      44.61       -39.0       
H           130.2       45.72       -40.46      
H           131.72828   45.75531    -39.3623    
H           132.66      36.95       -33.47      
H           132.74      45.94       -45.6       
S           129.73      38.97       -34.21      
C           131.96      37.58       -33.95      
C           130.72      37.8        -33.33      
C           134.94      45.04       -50.11      
C           135.89      45.78       -49.37      
C           133.99      44.45       -49.3       
N           136.81      46.51       -49.88      
N           136.88      46.73       -47.56      
O           137.41      47.11       -48.77      
H           133.13      44.09       -47.3       
H           133.26      43.82       -49.85      
C           133.95      44.58       -47.87      
C           135.82      45.99       -47.93      
C           134.82      45.38       -47.15      
C           134.67      42.55       -66.51      
C           133.52      42.38       -65.75      
S           136.0       42.96       -65.52      
C           133.17      44.05       -59.83      
C           134.39      44.2        -60.46      
C           135.51      44.6        -59.79      
C           135.43      44.76       -58.46      
C           134.23      44.62       -57.78      
C           133.05      44.26       -58.45      
C           136.57      45.12       -57.48      
C           135.77      45.13       -56.18      
C           134.43      44.74       -56.31      
C           132.14      43.62       -60.84      
C           132.95      43.44       -62.14      
C           134.29      43.73       -61.85      
C           136.28      45.31       -54.98      
C           135.55      45.09       -53.8       
C           134.23      44.61       -53.93      
C           133.55      44.55       -55.21      
C           132.56      42.97       -63.41      
C           133.58      42.84       -64.39      
C           134.93      43.13       -64.1       
C           135.38      43.53       -62.8       
C           137.08      46.51       -57.93      
C           137.66      44.06       -57.44      
C           131.1       44.78       -60.89      
C           131.44      42.26       -60.51      
H           132.19      43.98       -57.85      
H           136.44      44.68       -60.27      
H           131.52      42.63       -63.67      
H           136.45      43.83       -62.62      
H           137.37      45.59       -54.91      
H           132.46      44.34       -55.31      
H           137.57      46.36       -58.88      
H           137.94      46.8        -57.34      
H           136.32395   47.29405    -57.972     
H           138.35      44.22       -58.28      
H           138.43      44.15       -56.67      
H           137.3691    43.00992    -57.46838   
H           130.39      42.46       -60.23      
H           131.33      41.59       -61.36      
H           131.82924   41.67614    -59.67591   
H           130.43      44.76       -60.0       
H           131.56      45.73       -60.98      
H           130.50283   44.68416    -61.79681   
H           136.9       45.71       -52.15      
H           132.61      41.99       -66.15      
S           133.54      44.33       -52.33      
C           135.92      45.32       -52.46      
C           134.98      44.91       -51.6       
C           135.62      40.92       -70.59      
C           134.28      40.71       -70.01      
C           136.38      41.71       -69.8       
N           133.23      39.92       -70.37      
N           132.65      40.82       -68.37      
O           132.25      40.05       -69.41      
H           136.89      42.63       -68.04      
H           137.42      41.82       -70.14      
C           136.03      42.17       -68.55      
C           133.92      41.22       -68.65      
C           134.83      42.01       -67.86      
C           142.92      34.04       -83.82      
C           143.52      34.88       -82.98      
S           141.32      33.7        -83.29      
C           140.5       37.86       -78.67      
C           139.71      36.9        -79.27      
C           138.37      36.61       -78.92      
C           137.91      37.15       -77.69      
C           138.68      38.12       -77.02      
C           139.95      38.48       -77.51      
C           136.47      36.99       -77.08      
C           136.67      37.88       -75.86      
C           137.85      38.57       -75.91      
C           141.98      37.87       -79.09      
C           141.92      36.92       -80.29      
C           140.63      36.28       -80.28      
C           135.81      38.2        -74.82      
C           136.27      38.99       -73.74      
C           137.37      39.82       -73.97      
C           138.21      39.58       -75.01      
C           142.96      36.47       -81.06      
C           142.67      35.45       -81.93      
C           141.41      34.9        -82.03      
C           140.4       35.24       -81.11      
C           136.22      35.53       -76.63      
C           135.36      37.5        -78.0       
C           142.71      37.29       -77.84      
C           142.33      39.35       -79.42      
H           140.56      39.2        -76.93      
H           137.77      35.9        -79.43      
H           143.9       36.86       -80.89      
H           139.5       34.65       -81.02      
H           134.89      37.7        -74.68      
H           139.13      40.11       -74.99      
H           135.23      35.45       -76.29      
H           136.25      34.76       -77.36      
H           136.85045   35.24014    -75.7894    
H           135.43      36.86       -78.82      
H           134.38      37.32       -77.59      
H           135.57242   38.49839    -78.38236   
H           142.54      40.0        -78.59      
H           143.22      39.43       -80.06      
H           141.55876   39.79171    -80.05101   
H           142.79      38.12       -77.16      
H           142.09      36.6        -77.3       
H           143.64081   36.74411    -77.99397   
H           134.51      39.06       -72.41      
H           144.51      35.17       -83.24      
S           137.53      41.07       -72.7       
C           135.51      39.45       -72.64      
C           136.13      40.37       -71.87      
C           144.12      32.8        -87.82      
C           145.09      32.91       -86.83      
C           142.85      32.9        -87.38      
N           146.39      32.89       -86.92      
N           145.83      33.45       -84.79      
O           146.78      33.14       -85.66      
H           141.42      33.2        -85.84      
H           142.03      32.73       -88.08      
C           142.47      33.15       -86.02      
C           144.7       33.32       -85.46      
C           143.34      33.43       -85.05      
C           144.92      29.71       -104.22     
C           143.87      30.23       -103.5      
S           146.27      29.52       -103.12     
C           143.79      31.23       -97.62      
C           145.13      30.96       -98.07      
C           146.23      30.91       -97.23      
C           146.08      31.21       -95.9       
C           144.79      31.56       -95.45      
C           143.65      31.45       -96.25      
C           147.12      31.25       -94.73      
C           146.24      31.75       -93.59      
C           144.91      31.73       -93.99      
C           142.75      30.85       -98.62      
C           143.63      30.95       -99.87      
C           145.02      30.67       -99.47      
C           146.54      32.02       -92.26      
C           145.55      32.32       -91.32      
C           144.14      32.23       -91.75      
C           143.85      32.01       -93.1       
C           143.29      30.92       -101.17     
C           144.14      30.44       -102.11     
C           145.45      30.18       -101.7      
C           145.97      30.33       -100.47     
C           148.2       32.26       -95.14      
C           147.74      29.92       -94.41      
C           141.6       31.86       -98.65      
C           142.18      29.42       -98.42      
H           142.63      31.5        -95.82      
H           147.24      30.63       -97.5       
H           142.27      31.3        -101.4      
H           147.02      30.16       -100.26     
H           147.61      32.0        -91.99      
H           142.83      31.97       -93.45      
H           148.7       32.49       -94.2       
H           148.99      31.71       -95.66      
H           147.85766   33.20857    -95.55366   
H           148.56      29.58       -95.07      
H           148.18      30.0        -93.41      
H           147.02647   29.09613    -94.42471   
H           141.27      29.46       -97.83      
H           141.93      29.05       -99.39      
H           142.88205   28.69015    -98.01684   
H           141.15      31.84       -97.67      
H           140.77      31.64       -99.37      
H           141.93164   32.88439    -98.8195    
H           146.59      32.58       -89.42      
H           142.91      30.5        -103.91     
S           143.09      32.55       -90.41      
C           145.66      32.51       -89.89      
C           144.47      32.6        -89.2       
C           145.08      28.63       -108.56     
C           143.87      28.48       -107.77     
C           146.14      29.22       -107.89     
N           142.77      27.89       -108.1      
N           142.67      28.31       -105.79     
O           142.04      27.79       -106.95     
H           147.01      29.81       -106.03     
H           147.13      29.37       -108.31     
C           146.05      29.43       -106.43     
C           143.79      28.76       -106.31     
C           144.94      29.27       -105.6      
C           148.47      24.06       -123.9      
C           149.25      23.89       -122.85     
S           147.17      25.2        -123.65     
C           148.37      26.36       -117.54     
C           147.31      26.53       -118.46     
C           146.11      27.13       -118.11     
C           145.93      27.36       -116.72     
C           146.94      27.05       -115.75     
C           148.17      26.57       -116.16     
C           144.61      27.67       -116.11     
C           144.97      27.61       -114.62     
C           146.36      27.33       -114.46     
C           149.47      25.5        -118.14     
C           148.94      25.24       -119.54     
C           147.77      26.02       -119.7      
C           144.23      27.89       -113.49     
C           144.8       27.97       -112.18     
C           146.18      27.53       -112.12     
C           146.92      27.14       -113.22     
C           149.49      24.55       -120.5      
C           148.88      24.59       -121.7      
C           147.77      25.38       -121.97     
C           147.2       26.14       -120.96     
C           143.55      26.56       -116.36     
C           144.07      29.06       -116.53     
C           149.65      24.12       -117.36     
C           150.85      26.17       -118.3      
H           149.01      26.33       -115.4      
H           145.33      27.21       -118.86     
H           150.43      24.04       -120.27     
H           146.25      26.71       -121.12     
H           143.18      28.18       -113.73     
H           148.03      26.9        -113.07     
H           142.78      26.56       -115.66     
H           142.97      26.82       -117.19     
H           143.93466   25.54135    -116.40986  
H           143.85      28.89       -117.61     
H           143.13      29.09       -116.06     
H           144.61984   29.91041    -116.12679  
H           151.44      26.21       -117.37     
H           151.48      25.69       -119.02     
H           150.8155    27.2257     -118.5691   
H           149.96      24.25       -116.29     
H           150.5       23.53       -117.7      
H           148.82384   23.41082    -117.41118  
H           143.28      28.73       -110.78     
H           150.14      23.29       -122.87     
S           146.68      27.57       -110.46     
C           144.25      28.35       -110.93     
C           145.18      28.32       -109.95     
C           148.94      22.78       -128.16     
C           149.95      22.51       -127.17     
C           147.84      23.37       -127.6      
N           151.16      22.07       -127.28     
N           150.89      22.68       -125.18     
O           151.78      22.21       -126.08     
H           146.66      24.11       -126.04     
H           146.98      23.49       -128.23     
C           147.62      23.67       -126.24     
C           149.76      22.87       -125.83     
C           148.59      23.49       -125.28     
C           150.64      22.79       -144.48     
C           150.06      23.78       -143.73     
S           151.28      21.52       -143.43     
C           149.08      23.46       -137.86     
C           149.78      22.36       -138.44     
C           150.36      21.36       -137.66     
C           150.01      21.31       -136.3      
C           149.17      22.34       -135.76     
C           148.74      23.43       -136.53     
C           150.35      20.27       -135.23     
C           149.87      21.04       -133.95     
C           149.08      22.17       -134.36     
C           148.72      24.56       -138.87     
C           149.2       23.85       -140.16     
C           149.92      22.67       -139.8      
C           150.06      20.69       -132.64     
C           149.6       21.59       -131.64     
C           148.69      22.6        -132.04     
C           148.46      22.97       -133.4      
C           149.27      24.31       -141.42     
C           150.03      23.55       -142.38     
C           150.62      22.32       -142.01     
C           150.63      21.91       -140.71     
C           151.84      20.09       -135.13     
C           149.56      18.89       -135.27     
C           149.5       25.84       -138.71     
C           147.17      24.83       -138.76     
H           148.25      24.33       -136.0      
H           150.94      20.59       -138.13     
H           148.76      25.22       -141.8      
H           151.16      21.02       -140.45     
H           150.69      19.87       -132.3      
H           147.85      23.76       -133.79     
H           152.17      19.72       -136.14     
H           151.98      19.32       -134.45     
H           152.40002   20.99185    -134.88272  
H           148.53      19.08       -135.06     
H           149.97      18.14       -134.59     
H           149.46108   18.45899    -136.26627  
H           146.59      23.87       -138.78     
H           147.04      25.23       -137.74     
H           146.80367   25.57674    -139.46447  
H           149.02      26.42       -137.91     
H           149.35      26.35       -139.72     
H           150.56236   25.72273    -138.49615  
H           150.45      20.81       -129.78     
H           149.65      24.68       -144.21     
S           148.06      23.53       -130.7      
C           149.86      21.64       -130.22     
C           148.98      22.51       -129.56     
C           150.92      22.26       -148.85     
C           150.5       23.49       -148.2      
C           151.26      21.3        -147.97     
N           150.08      24.55       -148.84     
N           149.96      24.87       -146.56     
O           149.86      25.42       -147.84     
H           151.4       20.59       -145.94     
H           151.55      20.32       -148.31     
C           151.15      21.45       -146.53     
C           150.43      23.67       -146.8      
C           150.75      22.63       -145.9      
C           152.92      18.07       -164.97     
C           153.33      17.31       -163.89     
S           151.8       19.23       -164.33     
C           152.09      18.59       -158.0      
C           151.62      19.5        -158.98     
C           150.85      20.59       -158.56     
C           150.78      20.84       -157.15     
C           151.37      19.91       -156.24     
C           151.91      18.72       -156.66     
C           150.01      21.91       -156.42     
C           150.45      21.64       -155.01     
C           151.19      20.44       -154.92     
C           152.79      17.42       -158.65     
C           152.7       17.8        -160.11     
C           151.84      18.9        -160.29     
C           150.19      22.48       -153.95     
C           150.62      22.02       -152.64     
C           151.3       20.71       -152.54     
C           151.53      19.95       -153.65     
C           153.17      17.19       -161.27     
C           152.92      17.71       -162.55     
C           151.99      18.77       -162.66     
C           151.49      19.5        -161.48     
C           148.43      21.74       -156.51     
C           150.51      23.27       -156.86     
C           152.13      16.02       -158.32     
C           154.27      17.45       -158.26     
H           152.28      18.01       -155.95     
H           150.63      21.39       -159.26     
H           153.94      16.4        -161.09     
H           150.93      20.39       -161.6      
H           149.67      23.39       -154.08     
H           152.0       18.97       -153.61     
H           147.74      22.44       -156.07     
H           148.18      21.77       -157.6      
H           148.12648   20.74474    -156.1853   
H           150.5       23.27       -157.96     
H           149.86      24.02       -156.44     
H           151.54901   23.46084    -156.59141  
H           154.38      17.35       -157.2      
H           154.92      16.72       -158.68     
H           154.72627   18.39876    -158.54245  
H           152.17      16.03       -157.24     
H           152.68      15.11       -158.53     
H           151.10652   15.88681    -158.67051  
H           149.86      23.6        -151.31     
H           153.84      16.3        -163.92     
S           151.73      20.52       -150.87     
C           150.36      22.6        -151.36     
C           150.89      21.93       -150.29     
C           152.73      17.31       -169.3      
C           153.4       16.51       -168.39     
C           152.34      18.48       -168.69     
N           154.14      15.43       -168.72     
N           154.12      15.51       -166.47     
O           154.47      14.8        -167.53     
H           152.06      19.58       -167.02     
H           151.76      19.2        -169.23     
C           152.35      18.62       -167.3      
C           153.43      16.56       -166.95     
C           152.92      17.77       -166.36     
H           113.24      2.25        13.89       
H           152.77      17.11       -170.36     
