612

C           127.92      43.11       21.06       
C           126.67      43.65       20.8        
S           128.24      43.15       22.78       
C           122.56      45.15       25.0        
C           123.8       44.83       25.56       
C           124.13      44.82       26.95       
C           123.17      45.29       27.81       
C           121.86      45.58       27.33       
C           121.58      45.44       25.96       
C           123.2       45.62       29.33       
C           121.74      46.07       29.61       
C           120.98      45.85       28.45       
C           122.61      45.09       23.48       
C           124.06      44.82       23.16       
C           124.7       44.42       24.4        
C           121.2       46.45       30.77       
C           119.82      46.47       30.85       
C           119.02      46.2        29.73       
C           119.61      45.91       28.5        
C           124.63      44.55       21.91       
C           125.92      44.08       21.94       
C           126.63      43.81       23.1        
C           126.04      43.99       24.4        
C           124.21      46.81       29.58       
C           123.6       44.4        30.23       
C           122.36      46.49       22.94       
C           121.72      44.03       22.84       
H           120.57      45.78       25.65       
H           125.07      44.64       27.37       
H           124.19      44.88       20.95       
H           126.61      43.84       25.34       
H           121.76      46.77       31.63       
H           118.93      45.87       27.61       
H           125.16      46.63       29.25       
H           124.16      47.08       30.69       
H           123.95077   47.70291    29.01113    
H           122.76      43.66       30.07       
H           123.5       44.76       31.2        
H           124.56807   43.98098    29.95547    
H           121.62      44.33       21.8        
H           122.18      42.96       22.66       
H           120.6779    44.03       23.15958    
H           121.4       46.83       23.24       
H           122.31      46.48       21.87       
H           123.11599   47.20437    23.26598    
H           119.33      47.05       33.03       
H           126.3       43.77       19.73       
S           117.27      46.22       30.15       
C           118.98      46.72       32.02       
C           117.6       46.56       31.84       
C           130.51      40.7        18.34       
C           129.44      41.48       17.84       
C           130.55      40.64       19.7        
N           128.89      41.44       16.66       
N           127.67      42.84       17.98       
O           127.91      42.37       16.72       
H           129.91      41.29       21.58       
H           131.26      40.05       20.25       
C           129.77      41.5        20.52       
C           128.59      42.27       18.74       
C           128.75      42.33       20.14       
C           139.81      29.61       10.07       
C           139.42      29.55       11.38       
S           139.1       31.03       9.35        
C           135.82      33.54       14.29       
C           136.01      33.73       12.92       
C           135.28      34.79       12.27       
C           134.62      35.66       13.1        
C           134.45      35.46       14.55       
C           135.08      34.38       15.09       
C           133.86      36.94       12.69       
C           133.19      37.35       14.07       
C           133.69      36.58       15.12       
C           136.61      32.25       14.77       
C           137.23      31.78       13.43       
C           136.91      32.72       12.37       
C           132.5       38.52       14.39       
C           132.3       38.88       15.7        
C           132.69      37.99       16.7        
C           133.45      36.86       16.49       
C           138.08      30.73       13.16       
C           138.63      30.61       11.89       
C           138.39      31.56       10.87       
C           137.52      32.61       11.1        
C           132.63      36.8        11.7        
C           134.78      38.04       12.24       
C           135.58      31.39       15.51       
C           137.84      32.51       15.6        
H           135.15      34.42       16.19       
H           135.33      34.89       11.16       
H           138.34      30.1        14.03       
H           137.24      33.26       10.33       
H           132.15      39.24       13.67       
H           133.87      36.29       17.31       
H           132.99      36.45       10.75       
H           132.33      37.87       11.43       
H           131.90326   36.04476    11.99925    
H           135.36      38.21       13.1        
H           134.16      38.87       12.07       
H           135.37828   37.86273    11.34628    
H           138.35      31.58       15.79       
H           138.48      33.2        15.04       
H           137.61467   33.04516    16.52246    
H           136.16      30.88       16.33       
H           134.87      31.97       16.06       
H           135.19886   30.54143    14.94189    
H           130.99      40.65       15.49       
H           139.66      28.7        11.98       
S           132.12      38.45       18.3        
C           131.48      39.95       16.18       
C           131.38      39.89       17.54       
C           141.85      26.66       7.45        
C           141.89      26.49       8.84        
C           141.16      27.73       7.01        
N           142.57      25.62       9.59        
N           141.51      27.04       10.96       
O           142.34      25.96       10.87       
H           140.11      29.55       7.37        
H           141.05      28.02       5.93        
C           140.59      28.72       7.89        
C           141.29      27.49       9.74        
C           140.59      28.66       9.3         
C           147.83      18.95       -5.24       
C           146.48      19.15       -5.15       
S           148.55      18.66       -3.62       
C           143.66      20.74       -0.15       
C           144.93      20.17       0.13        
C           145.5       20.14       1.36        
C           144.97      20.93       2.37        
C           143.74      21.63       2.06        
C           143.08      21.54       0.85        
C           145.46      21.2        3.79        
C           144.53      22.21       4.19        
C           143.54      22.46       3.24        
C           143.36      20.73       -1.59       
C           144.55      20.03       -2.16       
C           145.56      19.83       -1.14       
C           144.54      22.92       5.38        
C           143.61      23.99       5.5         
C           142.63      24.22       4.49        
C           142.63      23.5        3.31        
C           144.77      19.65       -3.43       
C           146.01      19.26       -3.8        
C           147.01      19.09       -2.85       
C           146.78      19.33       -1.45       
C           146.97      21.56       4.0         
C           145.03      20.08       4.73        
C           143.16      22.18       -2.16       
C           142.01      19.95       -1.78       
H           142.16      22.13       0.64        
H           146.54      19.75       1.48        
H           144.05      19.76       -4.26       
H           147.57      19.18       -0.75       
H           145.18      22.67       6.15        
H           141.92      23.73       2.47        
H           147.37      21.42       5.0         
H           147.6       21.09       3.24        
H           147.18385   22.56509    3.63646     
H           145.99      19.47       4.93        
H           144.82      20.37       5.72        
H           144.3091    19.37381    4.31806     
H           141.18      20.61       -1.51       
H           141.84      19.71       -2.82       
H           141.98123   19.10126    -1.09669    
H           142.41      22.7        -1.54       
H           144.08      22.74       -2.15       
H           142.75872   22.25882    -3.17038    
H           144.03      24.77       7.52        
H           145.81      19.31       -6.01       
S           141.49      25.44       4.97        
C           143.39      24.82       6.62        
C           142.35      25.65       6.49        
C           150.23      20.59       -8.45       
C           150.7       19.48       -7.55       
C           148.96      20.86       -8.25       
N           151.83      18.81       -7.71       
N           150.78      18.04       -5.9        
O           151.85      17.89       -6.72       
H           147.12      20.69       -7.17       
H           148.46      21.66       -8.83       
C           148.14      20.26       -7.22       
C           149.96      18.91       -6.52       
C           148.61      19.33       -6.35       
C           150.73      28.42       -22.96      
C           150.84      27.03       -22.79      
S           150.46      29.19       -21.34      
C           151.42      24.2        -17.44      
C           151.21      25.63       -17.37      
C           151.12      26.22       -16.12      
C           151.05      25.46       -15.01      
C           151.26      24.03       -15.09      
C           151.48      23.43       -16.36      
C           150.64      25.95       -13.63      
C           150.91      24.6        -12.82      
C           151.28      23.48       -13.69      
C           151.45      23.79       -18.9       
C           151.11      25.06       -19.65      
C           151.06      26.14       -18.74      
C           150.77      24.44       -11.47      
C           150.98      23.15       -10.94      
C           151.19      22.09       -11.83      
C           151.35      22.18       -13.23      
C           151.14      25.3        -20.96      
C           150.88      26.63       -21.44      
C           150.84      27.68       -20.53      
C           150.85      27.41       -19.16      
C           149.2       26.44       -13.59      
C           151.53      27.07       -13.07      
C           150.31      22.8        -19.06      
C           152.8       23.09       -19.26      
H           151.55      22.38       -16.44      
H           150.73      27.21       -16.12      
H           151.37      24.52       -21.64      
H           150.7       28.15       -18.45      
H           150.69      25.29       -10.85      
H           151.37      21.33       -13.89      
H           148.88      26.72       -12.58      
H           149.17      27.39       -14.18      
H           148.47199   25.72573    -13.97461   
H           151.11      28.02       -13.08      
H           151.68      26.85       -11.98      
H           152.55007   27.16987    -13.44093   
H           153.03      22.18       -18.79      
H           152.8       22.93       -20.37      
H           153.63158   23.73025    -18.96563   
H           150.37      22.14       -18.15      
H           150.49      22.27       -20.01      
H           149.34111   23.28444    -18.93889   
H           150.48      23.29       -8.78       
H           150.97      26.28       -23.56      
S           151.31      20.53       -11.03      
C           150.85      22.66       -9.6        
C           150.97      21.31       -9.53       
C           149.61      30.76       -26.52      
C           150.21      31.39       -25.4       
C           149.48      29.36       -26.34      
N           150.5       32.65       -25.2       
N           150.94      31.55       -23.28      
O           150.7       32.78       -23.82      
H           149.59      27.6        -25.17      
H           149.23      28.73       -27.21      
C           149.85      28.64       -25.17      
C           150.55      30.68       -24.17      
C           150.4       29.22       -24.1       
C           148.48      38.33       -41.19      
C           149.45      38.62       -40.33      
S           147.58      36.88       -40.75      
C           150.36      35.14       -35.3       
C           149.19      34.86       -36.06      
C           148.23      33.86       -35.67      
C           148.42      33.21       -34.45      
C           149.51      33.64       -33.66      
C           150.57      34.53       -34.11      
C           147.44      32.33       -33.72      
C           148.1       32.29       -32.31      
C           149.33      32.99       -32.39      
C           151.02      36.47       -35.8       
C           150.36      36.56       -37.17      
C           149.25      35.72       -37.24      
C           147.65      31.66       -31.12      
C           148.47      31.64       -29.99      
C           149.69      32.33       -30.1       
C           150.14      32.97       -31.28      
C           150.49      37.53       -38.14      
C           149.56      37.65       -39.22      
C           148.68      36.62       -39.39      
C           148.44      35.7        -38.36      
C           147.41      30.91       -34.4       
C           146.07      32.95       -33.57      
C           152.58      36.28       -35.91      
C           150.67      37.83       -35.15      
H           151.35      34.77       -33.44      
H           147.48      33.47       -36.37      
H           151.19      38.33       -38.11      
H           147.61      35.03       -38.49      
H           146.69      31.2        -31.02      
H           151.2       33.25       -31.43      
H           146.77      30.99       -35.31      
H           146.88      30.19       -33.75      
H           148.3832    30.48467    -34.6451    
H           145.7       33.17       -34.6       
H           145.33      32.37       -33.07      
H           146.09149   33.88131    -33.00405   
H           151.44      38.61       -35.54      
H           149.62      38.0        -35.38      
H           150.79272   37.80834    -34.06715   
H           153.04      37.21       -35.61      
H           152.85      35.52       -35.15      
H           152.85155   35.81349    -36.85695   
H           147.45      30.42       -28.37      
H           149.97      39.52       -40.42      
S           150.64      32.2        -28.62      
C           148.34      31.01       -28.7       
C           149.33      31.35       -27.82      
C           146.73      40.89       -44.35      
C           147.57      41.49       -43.33      
C           146.68      39.53       -44.35      
N           147.95      42.76       -43.14      
N           148.82      41.49       -41.44      
O           148.58      42.78       -41.9       
H           147.17      37.66       -43.49      
H           146.22      39.06       -45.22      
C           147.26      38.74       -43.33      
C           148.17      40.7        -42.36      
C           148.0       39.24       -42.25      
C           133.89      46.4        -52.98      
C           134.6       45.3        -53.39      
S           134.66      47.22       -51.59      
C           139.54      43.56       -50.31      
C           139.0       44.77       -49.97      
C           139.74      45.57       -49.16      
C           140.93      45.2        -48.59      
C           141.36      43.89       -48.92      
C           140.67      43.09       -49.74      
C           141.75      45.78       -47.43      
C           142.68      44.63       -47.1       
C           142.53      43.57       -48.06      
C           138.78      42.9        -51.47      
C           137.54      43.83       -51.53      
C           137.76      44.9        -50.67      
C           143.53      44.48       -46.04      
C           144.36      43.34       -45.97      
C           144.21      42.36       -46.96      
C           143.32      42.44       -48.01      
C           136.5       43.82       -52.42      
C           135.6       44.94       -52.44      
C           135.88      45.96       -51.5       
C           136.84      45.95       -50.59      
C           140.99      46.24       -46.19      
C           142.45      47.02       -48.08      
C           138.37      41.43       -51.26      
C           139.58      43.0        -52.8       
H           140.94      42.08       -49.95      
H           139.3       46.59       -48.97      
H           136.33      43.09       -53.19      
H           136.89      46.76       -49.89      
H           143.68      45.26       -45.33      
H           143.18      41.63       -48.72      
H           141.78      46.72       -45.59      
H           140.36      47.06       -46.41      
H           140.41865   45.48748    -45.64652   
H           141.85      47.92       -48.08      
H           143.42      47.11       -47.56      
H           142.73102   46.83986    -49.11763   
H           139.65      41.97       -53.15      
H           138.99      43.47       -53.56      
H           140.54313   43.51032    -52.79281   
H           137.94      41.03       -52.18      
H           139.25      40.84       -51.2       
H           137.66502   41.24154    -50.45032   
H           145.78      43.66       -44.26      
H           134.22      44.63       -54.14      
S           145.13      40.97       -46.57      
C           145.45      43.01       -45.11      
C           145.9       41.74       -45.22      
C           130.3       47.68       -55.31      
C           130.32      47.55       -53.85      
C           131.54      47.43       -55.83      
N           129.34      47.6        -53.02      
N           131.15      47.24       -51.81      
O           129.82      47.45       -51.76      
H           133.66      46.81       -55.65      
H           131.66      47.3        -56.9       
C           132.71      46.98       -55.09      
C           131.48      47.25       -53.1       
C           132.72      46.88       -53.69      
C           118.46      49.87       -66.69      
C           119.76      49.85       -67.0       
S           118.09      49.98       -65.03      
C           124.1       49.45       -62.66      
C           122.78      49.46       -62.17      
C           122.45      49.33       -60.85      
C           123.46      49.04       -59.94      
C           124.79      49.15       -60.38      
C           125.11      49.34       -61.73      
C           123.51      48.78       -58.44      
C           125.01      48.59       -58.21      
C           125.76      48.76       -59.36      
C           124.11      49.35       -64.17      
C           122.62      49.51       -64.54      
C           121.88      49.59       -63.34      
C           125.65      48.3        -57.0       
C           127.02      48.19       -57.01      
C           127.74      48.44       -58.18      
C           127.16      48.69       -59.4       
C           122.06      49.47       -65.78      
C           120.61      49.68       -65.87      
C           119.86      49.8        -64.69      
C           120.46      49.77       -63.42      
C           122.83      47.54       -57.95      
C           123.02      50.08       -57.72      
C           124.67      47.98       -64.64      
C           124.82      50.57       -64.73      
H           126.13      49.43       -62.0       
H           121.41      49.37       -60.48      
H           122.72      49.56       -66.65      
H           119.83      49.98       -62.6       
H           125.14      48.09       -56.04      
H           127.8       48.79       -60.31      
H           122.66      47.6        -56.82      
H           121.76      47.71       -58.3       
H           123.22208   46.60789    -58.35687   
H           122.04      50.29       -58.19      
H           122.92      50.03       -56.69      
H           123.61559   50.93793    -58.03197   
H           125.94      50.36       -64.85      
H           124.45      50.95       -65.67      
H           124.65867   51.45379    -64.11275   
H           125.75      48.11       -64.56      
H           124.47      47.92       -65.71      
H           124.37283   47.13095    -64.02444   
H           127.51      47.77       -54.91      
H           120.13      49.93       -68.02      
S           129.45      48.22       -57.88      
C           127.86      47.91       -55.95      
C           129.13      47.92       -56.17      
C           115.18      49.64       -69.63      
C           116.47      50.34       -69.91      
C           115.13      49.17       -68.34      
N           116.93      50.72       -71.1       
N           118.51      51.17       -69.48      
O           118.1       51.34       -70.78      
H           116.08      48.98       -66.45      
H           114.19      48.67       -68.06      
C           116.17      49.42       -67.37      
C           117.44      50.51       -68.88      
C           117.34      50.0        -67.58      
C           103.2       43.39       -79.0       
C           103.75      42.85       -77.89      
S           104.18      44.69       -79.58      
C           108.21      45.31       -74.77      
C           107.96      45.94       -76.01      
C           108.63      47.13       -76.37      
C           109.56      47.67       -75.44      
C           109.82      46.94       -74.31      
C           109.18      45.78       -73.89      
C           110.48      48.89       -75.53      
C           111.18      48.8        -74.22      
C           110.84      47.63       -73.57      
C           107.47      44.02       -74.63      
C           106.68      44.0        -75.93      
C           106.94      45.15       -76.75      
C           112.07      49.64       -73.69      
C           112.69      49.24       -72.49      
C           112.28      48.15       -71.77      
C           111.27      47.31       -72.33      
C           105.67      43.25       -76.25      
C           104.96      43.48       -77.41      
C           105.27      44.59       -78.21      
C           106.28      45.4        -77.97      
C           109.69      50.23       -75.58      
C           111.4       48.76       -76.82      
C           106.51      44.2        -73.4       
C           108.4       42.76       -74.38      
H           109.34      45.4        -72.92      
H           108.45      47.57       -77.37      
H           105.35      42.45       -75.59      
H           106.55      46.21       -78.6       
H           112.44      50.52       -74.16      
H           110.88      46.47       -71.79      
H           110.41      51.06       -75.58      
H           109.14      50.32       -76.47      
H           109.04785   50.342      -74.70638   
H           110.81      49.18       -77.66      
H           112.18      49.51       -76.88      
H           111.86432   47.78135    -76.94144   
H           108.52      42.48       -73.37      
H           107.92      41.9        -74.8       
H           109.38307   42.89846    -74.83      
H           107.05      44.13       -72.48      
H           105.83      43.39       -73.53      
H           105.95723   45.13702    -73.46741   
H           114.21      50.74       -72.24      
H           103.27      42.1        -77.3       
S           113.17      47.97       -70.27      
C           113.71      49.89       -71.8       
C           114.05      49.38       -70.55      
C           99.32       42.48       -80.94      
C           100.04      41.48       -80.15      
C           99.97       43.68       -80.9       
N           99.66       40.29       -79.69      
N           101.61      40.81       -78.74      
O           100.66      39.8        -78.88      
H           101.67      44.91       -80.65      
H           99.57       44.53       -81.46      
C           101.28      43.96       -80.36      
C           101.3       41.81       -79.53      
C           101.99      43.07       -79.64      
C           85.81       44.91       -90.05      
C           86.33       45.74       -89.17      
S           86.55       43.37       -89.98      
C           90.89       44.38       -85.29      
C           90.49       43.32       -86.08      
C           91.11       42.03       -85.98      
C           92.07       41.87       -84.97      
C           92.5        43.04       -84.22      
C           91.9        44.31       -84.34      
C           92.77       40.53       -84.47      
C           93.86       41.24       -83.65      
C           93.68       42.64       -83.53      
C           90.15       45.66       -85.67      
C           89.2        45.12       -86.73      
C           89.4        43.75       -87.02      
C           94.98       40.67       -83.08      
C           95.93       41.52       -82.44      
C           95.7        42.92       -82.4       
C           94.56       43.48       -82.92      
C           88.15       45.81       -87.36      
C           87.38       45.23       -88.37      
C           87.57       43.86       -88.64      
C           88.52       43.07       -87.99      
C           93.36       39.68       -85.63      
C           91.93       39.72       -83.45      
C           91.09       46.77       -86.1       
C           89.35       46.17       -84.41      
H           92.3        45.25       -83.84      
H           90.73       41.15       -86.48      
H           88.06       46.82       -87.13      
H           88.7        42.04       -88.31      
H           95.18       39.55       -83.15      
H           94.45       44.56       -83.05      
H           92.55       39.2        -86.16      
H           93.93       38.91       -85.17      
H           94.01231    40.21762    -86.31815   
H           92.36       40.06       -82.5       
H           92.12       38.62       -83.42      
H           90.8502     39.8438     -83.53253   
H           90.18       46.52       -83.75      
H           88.79       47.09       -84.62      
H           88.65617    45.43966    -83.9937    
H           91.91       47.07       -85.43      
H           90.5        47.69       -86.24      
H           91.63314    46.55274    -87.01972   
H           97.69       40.26       -81.72      
H           86.06       46.8        -89.03      
S           97.0        43.74       -81.53      
C           97.22       41.21       -81.83      
C           97.98       42.29       -81.49      
C           82.58       45.52       -93.08      
C           83.13       46.55       -92.28      
C           83.32       44.38       -92.86      
N           82.69       47.78       -92.22      
N           84.42       47.66       -90.82      
O           83.48       48.45       -91.37      
H           84.65       43.15       -91.74      
H           83.02       43.56       -93.43      
C           84.39       44.18       -91.91      
C           84.19       46.46       -91.37      
C           84.79       45.15       -91.1       
C           68.62       45.75       -101.85     
C           69.19       44.56       -101.43     
S           69.82       47.03       -101.84     
C           74.48       44.49       -98.33      
C           74.25       45.59       -99.13      
C           75.09       46.67       -99.1       
C           76.24       46.58       -98.47      
C           76.56       45.45       -97.77      
C           75.7        44.34       -97.74      
C           77.29       47.68       -98.2       
C           78.3        46.91       -97.28      
C           77.8        45.63       -97.01      
C           73.41       43.41       -98.57      
C           72.45       44.13       -99.5       
C           72.97       45.43       -99.8       
C           79.54       47.3        -96.74      
C           80.14       46.44       -95.78      
C           79.55       45.19       -95.51      
C           78.39       44.76       -96.11      
C           71.31       43.68       -100.12     
C           70.52       44.66       -100.85     
C           71.02       45.97       -101.03     
C           72.25       46.3        -100.57     
C           76.44       48.87       -97.62      
C           77.9        48.17       -99.51      
C           72.56       43.01       -97.38      
C           74.09       42.13       -99.16      
H           75.87       43.56       -97.03      
H           74.82       47.57       -99.6       
H           71.04       42.62       -100.05     
H           72.65       47.32       -100.74     
H           79.9        48.34       -96.88      
H           78.03       43.75       -96.02      
H           75.97       49.39       -98.54      
H           75.62       48.47       -96.98      
H           76.99449    49.588      -97.01575   
H           77.13       48.41       -100.29     
H           78.49       49.07       -99.31      
H           78.56479    47.45463    -99.99414   
H           74.5        41.42       -98.5       
H           73.22       41.6        -99.66      
H           74.91444    42.31639    -99.84823   
H           73.1        42.31       -96.76      
H           71.75       42.41       -97.66      
H           72.1856     43.91132    -96.89467   
H           81.84       47.59       -95.1       
H           68.58       43.66       -101.31     
S           80.5        44.3        -94.26      
C           81.25       46.69       -94.96      
C           81.54       45.69       -94.1       
C           64.5        46.51       -103.5      
C           64.99       45.24       -103.18     
C           65.42       47.45       -103.31     
N           64.31       44.09       -103.23     
N           66.39       43.75       -102.38     
O           65.18       43.18       -102.7      
H           67.48       48.13       -102.87     
H           65.2        48.41       -103.7      
C           66.8        47.32       -102.83     
C           66.3        45.06       -102.65     
C           67.3        46.09       -102.43     
H           116.89      46.42       32.63       
H           63.54       46.66       -103.91     
