612

C           114.97      8.9         24.39       
C           113.73      9.41        24.84       
S           116.11      8.67        25.68       
C           113.3       11.8        30.47       
C           114.55      11.22       30.17       
C           115.63      11.27       31.01       
C           115.4       11.8        32.26       
C           114.16      12.43       32.55       
C           113.11      12.44       31.69       
C           116.35      11.84       33.51       
C           115.5       12.68       34.46       
C           114.22      12.88       33.89       
C           112.36      11.71       29.26       
C           113.25      11.07       28.23       
C           114.47      10.68       28.79       
C           115.76      13.22       35.72       
C           114.77      14.02       36.41       
C           113.55      14.12       35.75       
C           113.19      13.47       34.6        
C           112.95      10.61       27.01       
C           113.83      9.83        26.22       
C           115.05      9.43        26.83       
C           115.34      9.84        28.15       
C           117.73      12.58       33.15       
C           116.65      10.5        34.22       
C           111.99      13.15       28.9        
C           111.14      10.81       29.38       
H           112.11      12.7        32.01       
H           116.54      10.79       30.63       
H           111.98      11.04       26.61       
H           116.29      9.51        28.68       
H           116.7       13.08       36.14       
H           112.14      13.5        34.18       
H           118.41      12.15       32.41       
H           118.31      12.65       34.06       
H           117.44688   13.53824    32.71444    
H           115.79      10.17       34.72       
H           117.37      10.71       35.01       
H           117.04929   9.73045     33.55935    
H           110.48      11.19       28.57       
H           111.29      9.72        29.3        
H           110.60869   10.9871     30.31511    
H           111.46      13.57       29.73       
H           111.42      13.27       27.97       
H           112.81052   13.86533    28.8439     
H           115.54      14.51       38.46       
H           113.02      9.76        24.15       
S           112.39      14.99       36.71       
C           114.72      14.57       37.72       
C           113.53      15.24       37.95       
C           116.47      7.7         20.46       
C           115.13      7.48        20.74       
C           117.19      8.42        21.42       
N           114.19      6.88        20.08       
N           113.27      7.49        21.96       
O           113.06      6.9         20.8        
H           117.26      9.39        23.29       
H           118.15      8.77        21.25       
C           116.68      8.76        22.68       
C           114.52      7.88        22.04       
C           115.37      8.51        23.06       
C           125.81      0.62        9.03        
C           126.3       1.39        10.03       
S           124.1       1.09        8.75        
C           122.93      4.6         13.92       
C           122.3       4.06        12.78       
C           120.91      4.15        12.64       
C           120.18      4.69        13.69       
C           120.88      5.31        14.77       
C           122.26      5.23        14.89       
C           118.67      4.75        13.84       
C           118.56      5.42        15.2        
C           119.84      5.68        15.69       
C           124.36      4.06        13.95       
C           124.51      3.6         12.5        
C           123.25      3.47        11.91       
C           117.39      5.67        15.94       
C           117.55      6.33        17.17       
C           118.84      6.61        17.69       
C           120.03      6.32        17.02       
C           125.6       3.0         11.85       
C           125.39      2.2         10.71       
C           124.08      2.05        10.21       
C           123.01      2.78        10.78       
C           118.24      3.28        13.9        
C           117.88      5.56        12.74       
C           124.37      2.94        15.03       
C           125.29      5.25        14.35       
H           122.72      5.59        15.81       
H           120.38      3.6         11.9        
H           126.6       3.06        12.25       
H           122.06      2.66        10.41       
H           116.39      5.32        15.6        
H           120.93      6.36        17.53       
H           118.27      2.78        12.97       
H           117.17      3.31        14.17       
H           118.74943   2.77057     14.71796    
H           118.34      6.54        12.66       
H           116.87      5.8         13.13       
H           117.74527   5.0991      11.76147    
H           125.05      5.44        15.4        
H           126.34      4.95        14.24       
H           125.09042   6.13385     13.74413    
H           125.35      2.87        15.46       
H           123.75      3.25        15.84       
H           124.12461   1.9304      14.70048    
H           115.48      6.67        17.98       
H           127.36      1.5         10.29       
S           118.83      7.17        19.33       
C           116.56      6.83        18.1        
C           117.11      7.32        19.25       
C           127.67      -2.12       6.14        
C           128.19      -2.03       7.49        
C           126.48      -1.43       5.94        
N           129.24      -2.6        8.07        
N           128.37      -1.07       9.55        
O           129.3       -2.0        9.38        
H           125.01      -0.12       6.63        
H           126.07      -1.44       4.96        
C           125.85      -0.61       6.96        
C           127.6       -1.14       8.47        
C           126.4       -0.39       8.16        
C           133.62      -10.56      -6.61       
C           132.31      -10.52      -6.35       
S           134.5       -10.08      -5.22       
C           129.71      -8.22       -1.41       
C           131.1       -8.4        -1.36       
C           131.84      -7.87       -0.35       
C           131.19      -7.24       0.69        
C           129.78      -7.01       0.68        
C           129.05      -7.57       -0.4        
C           131.94      -6.65       1.8         
C           130.76      -5.87       2.36        
C           129.54      -6.06       1.75        
C           129.2       -8.7        -2.74       
C           130.52      -9.11       -3.39       
C           131.62      -8.97       -2.53       
C           130.8       -5.1        3.57        
C           129.66      -4.37       3.93        
C           128.44      -4.53       3.19        
C           128.36      -5.44       2.09        
C           130.63      -9.76       -4.59       
C           131.95      -10.02      -5.07       
C           133.04      -9.76       -4.25       
C           132.93      -9.25       -2.95       
C           132.96      -5.63       1.15        
C           132.64      -7.71       2.64        
C           128.48      -7.57       -3.46       
C           128.33      -9.92       -2.64       
H           128.03      -7.31       -0.45       
H           132.85      -7.94       -0.28       
H           129.77      -10.04      -5.18       
H           133.79      -9.04       -2.32       
H           131.71      -4.95       4.11        
H           127.51      -5.62       1.41        
H           133.75      -6.11       0.59        
H           132.44      -4.92       0.49        
H           133.39986   -4.93181    1.86215     
H           133.28      -8.35       1.96        
H           133.24      -7.2        3.34        
H           131.92362   -8.41936    3.05438     
H           128.2       -10.2       -3.67       
H           128.97      -10.62      -2.09       
H           127.3752    -9.80983    -2.12588    
H           127.39      -7.8        -3.52       
H           128.48      -6.66       -2.87       
H           128.79783   -7.2226     -4.44306    
H           130.13      -3.47       5.89        
H           131.6       -10.79      -7.06       
S           127.19      -3.62       3.85        
C           129.41      -3.58       5.08        
C           128.22      -2.95       5.08        
C           136.0       -10.86      -10.36      
C           134.6       -11.16      -10.3       
C           136.49      -10.53      -9.16       
N           133.8       -11.61      -11.32      
N           132.6       -11.5       -9.37       
O           132.61      -11.82      -10.65      
H           136.29      -10.42      -7.0        
H           137.49      -10.22      -9.08       
C           135.8       -10.58      -7.89       
C           133.83      -11.15      -9.08       
C           134.42      -10.87      -7.83       
C           143.87      -4.55       -23.18      
C           144.28      -4.37       -21.9       
S           142.91      -6.01       -23.36      
C           141.61      -7.15       -17.31      
C           141.42      -7.82       -18.53      
C           140.45      -8.85       -18.76      
C           139.76      -9.25       -17.66      
C           140.06      -8.74       -16.38      
C           140.98      -7.68       -16.22      
C           138.63      -10.3       -17.53      
C           138.37      -10.32      -16.02      
C           139.29      -9.45       -15.39      
C           142.87      -6.21       -17.35      
C           143.07      -6.17       -18.9       
C           142.22      -7.12       -19.57      
C           137.34      -10.85      -15.32      
C           137.37      -10.79      -13.92      
C           138.34      -9.88       -13.32      
C           139.33      -9.19       -14.01      
C           143.9       -5.4        -19.64      
C           143.73      -5.34       -21.05      
C           142.85      -6.28       -21.65      
C           142.17      -7.23       -20.97      
C           138.94      -11.7       -18.15      
C           137.37      -9.71       -18.25      
C           144.16      -6.71       -16.67      
C           142.57      -4.71       -16.92      
H           141.1       -7.06       -15.35      
H           140.43      -9.42       -19.62      
H           144.6       -4.66       -19.16      
H           141.33      -7.84       -21.4       
H           136.53      -11.36      -15.76      
H           139.98      -8.4        -13.65      
H           138.66      -11.75      -19.17      
H           140.07      -11.83      -18.15      
H           138.4992    -12.5669    -17.65778   
H           137.68      -9.11       -19.05      
H           136.79      -10.46      -18.72      
H           136.75247   -9.05777    -17.63247   
H           143.3       -4.03       -17.2       
H           141.63      -4.45       -17.38      
H           142.45006   -4.61828    -15.84051   
H           143.94      -7.01       -15.6       
H           144.75      -5.78       -16.64      
H           144.65387   -7.47661    -17.26707   
H           135.62      -11.91      -13.03      
H           144.93      -3.49       -21.58      
S           138.16      -9.71       -11.59      
C           136.56      -11.34      -12.87      
C           136.81      -10.84      -11.58      
C           143.05      -1.99       -26.74      
C           143.46      -1.42       -25.47      
C           143.12      -3.36       -26.64      
N           143.57      -0.18       -25.15      
N           144.14      -1.39       -23.32      
O           143.88      -0.21       -23.87      
H           143.32      -5.13       -25.76      
H           142.72      -3.97       -27.45      
C           143.38      -4.14       -25.52      
C           143.87      -2.21       -24.34      
C           143.8       -3.64       -24.35      
C           135.17      1.84        -40.55      
C           135.68      0.65        -40.11      
S           135.32      3.04        -39.32      
C           139.18      -0.02       -35.42      
C           138.45      1.21        -35.32      
C           138.71      2.27        -34.4       
C           139.52      1.91        -33.31      
C           140.14      0.62        -33.29      
C           139.99      -0.24       -34.34      
C           139.86      2.62        -31.95      
C           140.66      1.59        -31.2       
C           140.9       0.49        -32.02      
C           138.47      -1.05       -36.36      
C           137.42      -0.15       -37.0       
C           137.59      1.22        -36.49      
C           141.11      1.57        -29.85      
C           141.72      0.39        -29.33      
C           141.99      -0.67       -30.24      
C           141.65      -0.59       -31.58      
C           136.72      -0.35       -38.18      
C           136.09      0.7         -38.78      
C           136.07      1.95        -38.14      
C           136.73      2.23        -36.99      
C           138.59      2.89        -31.13      
C           140.61      3.94        -32.23      
C           137.76      -2.15       -35.49      
C           139.33      -1.74       -37.48      
H           140.56      -1.16       -34.27      
H           138.11      3.18        -34.39      
H           136.73      -1.3        -38.74      
H           136.86      3.26        -36.68      
H           140.91      2.39        -29.21      
H           141.85      -1.39       -32.28      
H           137.97      3.7         -31.56      
H           138.93      3.21        -30.21      
H           137.90635   2.0459      -31.03931   
H           139.84      4.58        -32.68      
H           140.79      4.2         -31.19      
H           141.42037   3.84509     -32.95276   
H           138.66      -2.42       -37.88      
H           139.55      -0.95       -38.12      
H           140.2271    -2.17778    -37.04222   
H           138.17      -3.12       -35.74      
H           138.12      -2.05       -34.48      
H           136.67091   -2.16405    -35.53216   
H           141.88      0.55        -27.07      
H           135.74      -0.18       -40.81      
S           142.84      -1.98       -29.47      
C           142.12      0.01        -27.98      
C           142.67      -1.24       -27.91      
C           133.23      2.63        -44.42      
C           134.21      1.65        -44.31      
C           133.09      3.48        -43.34      
N           134.56      0.6         -45.09      
N           135.64      0.34        -43.13      
O           135.43      -0.18       -44.37      
H           133.46      3.92        -41.25      
H           132.43      4.32        -43.37      
C           133.69      3.2         -42.06      
C           134.95      1.48        -43.07      
C           134.7       2.25        -41.87      
C           123.75      6.01        -57.14      
C           123.36      6.41        -55.88      
S           124.65      4.49        -57.0       
C           126.31      4.6         -50.98      
C           126.51      3.79        -52.15      
C           127.58      2.92        -52.29      
C           128.56      2.94        -51.28      
C           128.38      3.7         -50.08      
C           127.26      4.55        -49.91      
C           129.81      2.12        -51.28      
C           130.41      2.52        -49.88      
C           129.6       3.5         -49.25      
C           125.09      5.53        -51.16      
C           124.87      5.36        -52.6       
C           125.51      4.23        -53.11      
C           131.55      2.19        -49.2       
C           131.73      2.67        -47.87      
C           130.92      3.67        -47.37      
C           129.88      4.19        -48.11      
C           123.89      5.98        -53.46      
C           123.87      5.62        -54.78      
C           124.67      4.55        -55.27      
C           125.48      3.81        -54.44      
C           130.74      2.53        -52.45      
C           129.46      0.68        -51.35      
C           125.28      7.0         -50.96      
C           123.83      5.04        -50.41      
H           127.14      5.06        -48.96      
H           127.7       2.22        -53.14      
H           123.25      6.82        -53.08      
H           125.93      2.89        -54.74      
H           132.16      1.45        -49.65      
H           129.3       5.0         -47.72      
H           130.31      2.11        -53.31      
H           130.69      3.62        -52.54      
H           131.77128   2.18393     -52.38079   
H           129.18      0.46        -52.39      
H           130.39      0.09        -51.06      
H           128.58899   0.41584     -50.75029   
H           122.99      5.76        -50.52      
H           123.47      4.13        -50.84      
H           124.02513   4.87275     -49.35073   
H           124.38      7.59        -50.78      
H           125.68      7.01        -49.96      
H           126.01208   7.38416     -51.67034   
H           133.49      1.6         -47.13      
H           122.88      7.38        -55.76      
S           131.36      4.14        -45.73      
C           132.68      2.23        -46.89      
C           132.51      2.87        -45.67      
C           123.39      7.93        -61.1       
C           122.86      8.49        -59.91      
C           123.87      6.63        -60.93      
N           122.27      9.71        -59.81      
N           122.4       8.64        -57.75      
O           121.97      9.79        -58.5       
H           124.53      5.12        -59.57      
H           124.17      6.07        -61.81      
C           123.96      6.03        -59.62      
C           122.97      7.85        -58.65      
C           123.6       6.62        -58.45      
C           125.47      12.43       -76.89      
C           126.46      11.89       -76.11      
S           124.07      12.89       -76.03      
C           125.71      11.1        -70.1       
C           124.58      11.59       -70.75      
C           123.43      11.92       -70.02      
C           123.37      11.51       -68.69      
C           124.37      10.68       -68.15      
C           125.59      10.52       -68.82      
C           122.15      11.54       -67.75      
C           122.73      10.82       -66.51      
C           124.01      10.25       -66.79      
C           126.95      11.21       -71.01      
C           126.28      11.44       -72.4       
C           124.93      11.79       -72.17      
C           122.12      10.57       -65.29      
C           122.8       9.72        -64.42      
C           124.04      9.19        -64.73      
C           124.7       9.44        -65.93      
C           126.94      11.5        -73.64      
C           126.13      11.88       -74.71      
C           124.8       12.4        -74.46      
C           124.17      12.35       -73.24      
C           120.84      10.93       -68.37      
C           121.91      13.04       -67.35      
C           127.71      9.88        -71.01      
C           127.91      12.42       -70.68      
H           126.51      10.07       -68.39      
H           122.54      12.4        -70.55      
H           127.89      11.09       -73.85      
H           123.25      12.77       -72.96      
H           121.14      11.02       -65.01      
H           125.56      8.91        -66.18      
H           120.05      11.67       -68.1       
H           120.86      11.04       -69.49      
H           120.61436   9.88187     -68.17348   
H           121.4       13.59       -68.19      
H           121.31      13.21       -66.43      
H           122.85824   13.55658    -67.20139   
H           128.87      11.98       -70.58      
H           127.85      13.18       -71.47      
H           127.72805   12.81189    -69.67929   
H           128.11      9.73        -70.02      
H           128.61      9.93        -71.63      
H           127.04509   9.0578      -71.27453   
H           121.51      9.64        -62.48      
H           127.45      11.61       -76.55      
S           124.59      8.15        -63.51      
C           122.36      9.33        -63.07      
C           123.28      8.53        -62.45      
C           125.01      13.34       -81.21      
C           126.28      13.35       -80.54      
C           124.05      13.02       -80.4       
N           127.44      13.64       -81.07      
N           127.83      13.14       -78.88      
O           128.37      13.4        -80.12      
H           123.39      12.45       -78.46      
H           123.0       12.91       -80.85      
C           124.27      12.68       -79.0       
C           126.54      12.96       -79.15      
C           125.47      12.63       -78.36      
C           119.82      16.42       -96.6       
C           119.09      15.88       -95.62      
S           121.51      16.5        -96.13      
C           121.29      14.44       -90.15      
C           122.24      14.83       -91.07      
C           123.57      15.02       -90.69      
C           123.96      14.64       -89.43      
C           122.96      14.17       -88.53      
C           121.64      14.17       -88.83      
C           125.33      14.87       -88.71      
C           124.93      14.32       -87.31      
C           123.55      13.92       -87.21      
C           119.88      14.31       -90.72      
C           120.19      14.75       -92.17      
C           121.56      15.02       -92.36      
C           125.65      14.31       -86.14      
C           125.02      13.95       -84.91      
C           123.74      13.45       -84.89      
C           122.96      13.44       -86.03      
C           119.33      14.91       -93.25      
C           119.78      15.49       -94.42      
C           121.17      15.7        -94.58      
C           122.04      15.48       -93.58      
C           125.61      16.44       -88.8       
C           126.5       14.08       -89.32      
C           118.93      15.32       -90.01      
C           119.4       12.88       -90.59      
H           120.94      13.73       -88.1       
H           124.35      15.34       -91.4       
H           118.27      14.65       -93.13      
H           123.12      15.55       -93.73      
H           126.74      14.46       -86.2       
H           121.94      13.05       -85.94      
H           126.18      16.66       -89.72      
H           124.65      17.05       -88.81      
H           126.23759   16.77225    -87.97306   
H           126.85      14.67       -90.14      
H           127.36      14.04       -88.62      
H           126.28718   13.02324    -89.48145   
H           119.68      12.52       -89.59      
H           118.32      12.83       -90.5       
H           119.71561   12.13134    -91.31664   
H           118.6       14.89       -88.99      
H           118.05      15.34       -90.68      
H           119.29612   16.33939    -89.88796   
H           126.65      14.16       -83.39      
H           117.99      15.86       -95.59      
S           123.24      13.08       -83.27      
C           125.66      13.92       -83.59      
C           124.82      13.6        -82.61      
C           118.58      18.65       -100.19     
C           117.76      18.63       -99.0       
C           119.83      18.0        -100.02     
N           116.63      19.13       -98.69      
N           117.3       18.07       -96.86      
O           116.33      18.84       -97.43      
H           121.14      16.7        -98.91      
H           120.57      17.95       -100.84     
C           120.22      17.23       -98.87      
C           118.21      17.9        -97.83      
C           119.43      17.16       -97.77      
C           112.99      21.76       -115.13     
C           114.2       21.16       -114.92     
S           112.44      22.54       -113.64     
C           116.87      21.06       -109.41     
C           115.6       21.59       -109.53     
C           115.03      22.31       -108.41     
C           115.51      22.02       -107.14     
C           116.78      21.44       -107.06     
C           117.4       20.85       -108.13     
C           115.08      22.53       -105.8      
C           116.1       21.79       -104.89     
C           117.12      21.25       -105.68     
C           117.34      20.53       -110.74     
C           116.17      20.79       -111.64     
C           115.17      21.56       -110.87     
C           116.04      21.58       -103.54     
C           117.0       20.65       -102.98     
C           118.12      20.27       -103.8      
C           118.22      20.56       -105.15     
C           116.01      20.65       -113.01     
C           114.79      21.21       -113.62     
C           113.85      21.9        -112.81     
C           114.09      22.17       -111.48     
C           113.6       22.02       -105.46     
C           115.24      24.07       -105.6      
C           117.61      19.01       -110.66     
C           118.45      21.34       -111.43     
H           118.41      20.49       -108.07     
H           114.05      22.81       -108.53     
H           116.73      20.21       -113.66     
H           113.36      22.73       -110.97     
H           115.28      21.97       -102.97     
H           118.83      20.02       -105.81     
H           112.83      22.38       -106.17     
H           113.25      22.31       -104.51     
H           113.5858    20.93401    -105.55227  
H           116.28      24.23       -105.94     
H           115.12      24.29       -104.53     
H           114.65371   24.64233    -106.3189   
H           118.41      20.94       -112.5      
H           118.19      22.4        -111.58     
H           119.43258   21.15752    -110.99486  
H           118.4       18.76       -109.95     
H           117.91      18.7        -111.67     
H           116.74858   18.407      -110.37286  
H           116.34      20.29       -100.82     
H           114.68      20.6        -115.72     
S           119.32      19.35       -102.81     
C           117.08      20.12       -101.67     
C           118.22      19.36       -101.44     
C           110.0       21.03       -118.34     
C           111.46      21.0        -118.6      
C           109.73      21.53       -117.1      
N           112.08      20.54       -119.68     
N           113.63      21.14       -118.14     
O           113.4       20.72       -119.39     
H           110.29      22.34       -115.17     
H           108.72      21.58       -116.85     
C           110.71      21.89       -116.07     
C           112.46      21.37       -117.61     
C           112.03      21.78       -116.31     
C           99.38       12.49       -127.93     
C           100.67      12.73       -128.3      
S           98.91       13.34       -126.45     
C           104.37      16.25       -125.14     
C           103.05      16.17       -124.65     
C           102.65      16.92       -123.5      
C           103.56      17.79       -122.91     
C           104.91      17.66       -123.27     
C           105.3       16.96       -124.42     
C           103.42      18.89       -121.78     
C           104.9       19.15       -121.4      
C           105.75      18.35       -122.23     
C           104.65      15.28       -126.31     
C           103.22      14.75       -126.49     
C           102.26      15.17       -125.5      
C           105.43      19.97       -120.47     
C           106.82      20.07       -120.3      
C           107.67      19.24       -121.0      
C           107.13      18.31       -121.96     
C           102.74      13.98       -127.46     
C           101.39      13.51       -127.41     
C           100.54      13.96       -126.39     
C           100.93      14.89       -125.48     
C           102.54      18.27       -120.65     
C           102.79      20.17       -122.27     
C           105.73      14.17       -126.06     
C           104.96      16.01       -127.65     
H           106.32      17.02       -124.73     
H           101.62      16.9        -123.15     
H           103.33      13.62       -128.29     
H           100.18      15.21       -124.7      
H           104.7       20.59       -119.88     
H           107.83      17.62       -122.48     
H           102.25      19.09       -119.96     
H           101.58      17.87       -121.08     
H           103.06783   17.48538    -120.1079   
H           101.71      20.03       -122.6      
H           102.88      20.97       -121.54     
H           103.28219   20.58015    -123.15183  
H           104.69      15.39       -128.47     
H           104.22      16.82       -127.75     
H           105.96378   16.41594    -127.77547  
H           106.78      14.5        -125.96     
H           105.83      13.48       -126.88     
H           105.5235    13.71429    -125.09161  
H           107.25      21.44       -118.57     
H           101.13      12.27       -129.14     
S           109.34      19.31       -120.45     
C           107.64      20.82       -119.35     
C           108.97      20.51       -119.27     
C           96.44       10.02       -129.99     
C           97.25       10.9        -130.7      
C           96.49       10.13       -128.61     
N           97.4        11.23       -131.98     
N           98.95       12.42       -130.91     
O           98.48       12.04       -132.09     
H           97.48       10.96       -126.88     
H           95.8        9.59        -128.02     
C           97.53       10.91       -127.96     
C           98.2        11.75       -130.02     
C           98.35       11.73       -128.63     
H           113.31      15.71       38.88       
H           95.63       9.52        -130.47     
