612

C           113.13      16.86       28.06       
C           112.04      17.44       28.6        
S           113.93      15.74       29.09       
C           110.36      16.09       34.45       
C           111.51      15.38       34.04       
C           112.26      14.58       34.91       
C           111.87      14.55       36.22       
C           110.77      15.25       36.65       
C           110.07      16.1        35.8        
C           112.34      13.52       37.32       
C           111.32      13.85       38.43       
C           110.42      14.8        37.94       
C           109.61      16.66       33.27       
C           110.63      16.68       32.18       
C           111.62      15.7        32.57       
C           111.17      13.31       39.68       
C           110.09      13.68       40.44       
C           109.16      14.59       39.89       
C           109.35      15.2        38.7        
C           110.65      17.31       30.94       
C           111.79      16.99       30.01       
C           112.77      16.02       30.44       
C           112.65      15.3        31.65       
C           113.79      13.78       37.79       
C           112.08      12.06       36.99       
C           109.3       18.16       33.56       
C           108.3       16.02       32.87       
H           109.19      16.61       36.17       
H           113.24      14.23       34.64       
H           109.91      18.07       30.66       
H           113.45      14.51       31.92       
H           111.9       12.64       40.1        
H           108.65      15.9        38.3        
H           114.52      13.63       36.99       
H           114.05      12.97       38.47       
H           113.99884   14.75218    38.23648    
H           111.13      11.95       36.57       
H           112.15      11.46       37.85       
H           112.76611   11.71334    36.21723    
H           107.6       16.68       32.39       
H           108.58      15.28       32.09       
H           107.86354   15.45261    33.69199    
H           108.42      18.22       34.25       
H           108.94      18.6        32.62       
H           110.14996   18.76612    33.87351    
H           110.55      12.74       42.37       
H           111.5       18.29       28.16       
S           107.83      14.84       41.04       
C           109.81      13.29       41.8        
C           108.66      13.89       42.25       
C           114.91      17.38       23.99       
C           114.15      18.44       24.66       
C           114.93      16.25       24.72       
N           113.9       19.63       24.22       
N           112.84      19.41       26.22       
O           113.01      20.22       25.13       
H           114.45      15.08       26.53       
H           115.53      15.4        24.27       
C           114.35      16.07       26.03       
C           113.48      18.28       25.89       
C           113.7       17.06       26.71       
C           122.83      16.47       9.55        
C           123.5       16.06       10.65       
S           121.56      17.5        9.99        
C           121.2       16.79       16.25       
C           120.6       17.6        15.26       
C           119.5       18.43       15.41       
C           118.97      18.52       16.69       
C           119.53      17.69       17.71       
C           120.61      16.78       17.52       
C           117.75      19.32       17.14       
C           117.68      18.8        18.57       
C           118.65      17.79       18.86       
C           122.54      16.2        15.77       
C           122.4       16.48       14.25       
C           121.27      17.32       14.01       
C           116.63      19.06       19.44       
C           116.48      18.27       20.61       
C           117.35      17.22       20.78       
C           118.5       17.04       20.02       
C           123.29      16.04       13.25       
C           122.95      16.41       11.95       
C           121.77      17.2        11.67       
C           120.94      17.69       12.71       
C           116.49      18.96       16.33       
C           118.0       20.89       17.06       
C           122.48      14.65       16.09       
C           123.87      16.86       16.33       
H           121.02      16.14       18.31       
H           119.13      19.06       14.55       
H           124.25      15.6        13.5        
H           120.08      18.31       12.54       
H           115.84      19.83       19.27       
H           119.29      16.36       20.39       
H           116.43      19.35       15.3        
H           115.65      19.44       16.83       
H           116.26815   17.89368    16.28706    
H           118.67      21.21       17.86       
H           117.06      21.35       17.38       
H           118.16158   21.26233    16.04839    
H           124.82      16.42       16.1        
H           123.93      17.86       15.96       
H           123.88458   16.94749    17.41638    
H           121.98      14.45       16.99       
H           121.91      14.33       15.18       
H           123.41181   14.11852    15.89673    
H           114.94      19.31       21.75       
H           124.36      15.33       10.63       
S           116.98      16.46       22.37       
C           115.57      18.43       21.67       
C           115.64      17.53       22.7        
C           122.59      15.39       5.18        
C           123.24      14.52       6.21        
C           122.21      16.57       5.78        
N           123.77      13.27       6.09        
N           124.17      13.96       8.22        
O           124.43      12.98       7.26        
H           121.77      17.81       7.43        
H           121.69      17.26       5.16        
C           122.3       16.86       7.18        
C           123.49      14.96       7.57        
C           122.89      16.14       8.14        
C           117.46      13.44       -10.46      
C           117.6       14.59       -9.79       
S           117.4       12.02       -9.37       
C           119.33      14.85       -4.07       
C           118.91      13.54       -4.42       
C           119.01      12.48       -3.52       
C           119.62      12.74       -2.31       
C           120.09      14.06       -1.99       
C           119.95      15.17       -2.85       
C           119.87      11.83       -1.07       
C           120.65      12.75       -0.14       
C           120.79      14.04       -0.68       
C           119.35      15.73       -5.33       
C           118.31      14.99       -6.13       
C           118.26      13.56       -5.79       
C           121.0       12.53       1.19        
C           121.57      13.62       1.95        
C           121.8       14.88       1.32        
C           121.5       15.04       -0.07       
C           117.88      15.43       -7.43       
C           117.75      14.4        -8.38       
C           117.75      13.08       -8.03       
C           117.94      12.6        -6.72       
C           120.66      10.63       -1.66       
C           118.54      11.33       -0.45       
C           120.73      15.68       -6.01       
C           118.82      17.11       -5.05       
H           120.32      16.11       -2.54       
H           118.66      11.5        -3.8        
H           117.96      16.44       -7.86       
H           117.87      11.48       -6.46       
H           120.91      11.49       1.62        
H           121.55      15.97       -0.51       
H           119.93      9.93        -1.89       
H           121.32      10.8        -2.59       
H           121.36189   10.12964    -0.99285    
H           118.04      10.59       -1.06       
H           118.7       10.89       0.49        
H           117.79553   12.10959    -0.28846    
H           118.43      17.54       -5.94       
H           118.04      16.89       -4.38       
H           119.43259   17.8793     -4.57987    
H           121.6       16.01       -5.31       
H           120.94      14.59       -6.3        
H           120.8598    16.10545    -7.00511    
H           121.95      12.95       4.08        
H           117.64      15.55       -10.3       
S           122.28      16.12       2.46        
C           121.96      13.73       3.37        
C           122.22      15.03       3.8         
C           118.51      13.15       -14.74      
C           117.64      12.19       -14.12      
C           118.8       14.2        -13.98      
N           117.11      11.12       -14.63      
N           116.57      11.15       -12.47      
O           116.43      10.51       -13.67      
H           118.72      15.15       -12.12      
H           119.36      15.0        -14.39      
C           118.45      14.22       -12.59      
C           117.23      12.27       -12.76      
C           117.71      13.29       -11.93      
C           127.14      14.92       -28.83      
C           127.18      15.84       -27.8       
S           125.68      13.98       -28.68      
C           123.87      15.23       -22.67      
C           123.61      14.34       -23.76      
C           122.71      13.28       -23.63      
C           121.99      13.14       -22.44      
C           122.19      14.0        -21.36      
C           123.15      15.07       -21.48      
C           120.97      12.04       -21.99      
C           120.51      12.56       -20.59      
C           121.34      13.66       -20.21      
C           125.05      16.16       -23.08      
C           125.35      15.69       -24.52      
C           124.53      14.59       -24.84      
C           119.68      12.01       -19.63      
C           119.63      12.62       -18.33      
C           120.52      13.69       -18.04      
C           121.35      14.28       -19.0       
C           126.27      16.21       -25.45      
C           126.38      15.55       -26.71      
C           125.47      14.51       -26.99      
C           124.57      14.01       -26.04      
C           121.66      10.68       -21.93      
C           119.78      12.01       -22.95      
C           126.28      16.01       -22.22      
C           124.64      17.67       -23.23      
H           123.26      15.71       -20.67      
H           122.68      12.51       -24.45      
H           126.83      17.08       -25.16      
H           123.9       13.2        -26.3       
H           118.8       11.34       -19.87      
H           121.85      15.25       -18.75      
H           120.83      9.91        -22.12      
H           122.32      10.63       -22.82      
H           122.18993   10.50578    -20.99356   
H           120.04      12.05       -24.0       
H           119.31      11.05       -22.91      
H           119.02981   12.78824    -22.80978   
H           125.49      18.38       -23.05      
H           124.25      17.86       -24.28      
H           123.93328   17.94289    -22.44631   
H           126.1       16.58       -21.31      
H           127.11      16.56       -22.6       
H           126.65649   14.98708    -22.22      
H           117.98      11.59       -17.15      
H           127.91      16.7        -27.85      
S           120.41      14.29       -16.41      
C           118.79      12.36       -17.22      
C           119.09      13.13       -16.11      
C           128.47      14.98       -32.91      
C           128.67      13.83       -32.12      
C           127.87      16.04       -32.3       
N           129.11      12.55       -32.35      
N           128.49      12.7        -30.18      
O           129.15      11.88       -31.11      
H           126.99      16.92       -30.62      
H           127.58      16.94       -32.81      
C           127.58      16.05       -30.96      
C           128.24      13.85       -30.75      
C           127.65      15.0        -30.15      
C           125.06      14.15       -48.89      
C           125.21      15.38       -48.18      
S           125.53      12.77       -47.92      
C           127.24      15.61       -42.52      
C           127.16      14.27       -42.99      
C           127.59      13.2        -42.21      
C           127.89      13.46       -40.9       
C           127.96      14.78       -40.44      
C           127.66      15.93       -41.25      
C           128.38      12.45       -39.85      
C           128.62      13.44       -38.71      
C           128.41      14.81       -39.12      
C           126.99      16.66       -43.6       
C           126.58      15.73       -44.74      
C           126.66      14.34       -44.35      
C           128.9       13.13       -37.42      
C           128.73      14.12       -36.46      
C           128.61      15.46       -36.9       
C           128.41      15.89       -38.23      
C           126.12      16.07       -46.02      
C           125.71      15.08       -46.88      
C           126.0       13.74       -46.55      
C           126.37      13.32       -45.26      
C           129.68      11.8        -40.26      
C           127.38      11.36       -39.4       
C           128.3       17.3        -44.1       
C           125.81      17.59       -43.37      
H           127.89      16.94       -40.95      
H           127.6       12.21       -42.63      
H           126.06      17.08       -46.33      
H           126.31      12.29       -44.91      
H           129.08      12.05       -37.11      
H           128.34      16.94       -38.47      
H           129.57      10.91       -40.93      
H           130.01      11.45       -39.32      
H           130.41604   12.52189    -40.61387   
H           127.23      10.68       -40.23      
H           127.74      10.79       -38.52      
H           126.36671   11.70917    -39.20145   
H           125.16      17.65       -44.21      
H           125.13      17.14       -42.69      
H           126.00203   18.62836    -43.09974   
H           128.18      17.71       -45.05      
H           128.52      18.23       -43.67      
H           129.16688   16.64617    -44.1955    
H           128.67      12.79       -34.67      
H           125.07      16.37       -48.61      
S           128.55      16.38       -35.39      
C           128.61      13.86       -35.08      
C           128.58      14.98       -34.32      
C           123.69      13.43       -52.87      
C           123.88      14.74       -52.5       
C           123.76      12.48       -51.85      
N           123.87      15.87       -53.14      
N           124.72      16.2        -51.15      
O           124.54      16.75       -52.29      
H           124.02      11.81       -49.86      
H           123.5       11.45       -52.11      
C           124.05      12.66       -50.51      
C           124.37      14.98       -51.15      
C           124.53      13.88       -50.21      
C           119.42      6.94        -66.97      
C           118.92      6.4         -65.79      
S           119.89      8.59        -66.8       
C           119.9       9.09        -60.57      
C           120.16      9.85        -61.7       
C           120.86      11.08       -61.71      
C           121.2       11.64       -60.55      
C           120.82      10.98       -59.34      
C           120.25      9.65        -59.36      
C           122.1       12.81       -60.26      
C           122.22      12.78       -58.71      
C           121.34      11.78       -58.2       
C           119.5       7.68        -60.88      
C           119.18      7.83        -62.36      
C           119.78      9.07        -62.8       
C           123.03      13.44       -57.81      
C           122.91      13.11       -56.48      
C           122.0       12.12       -55.99      
C           121.19      11.47       -56.87      
C           118.85      6.89        -63.31      
C           119.04      7.17        -64.64      
C           119.55      8.46        -65.06      
C           119.98      9.37        -64.13      
C           121.52      14.14       -60.83      
C           123.47      12.49       -60.87      
C           118.18      7.16        -60.2       
C           120.69      6.65        -60.75      
H           120.1       9.13        -58.37      
H           121.06      11.58       -62.61      
H           118.39      5.99        -63.06      
H           120.47      10.3        -64.38      
H           123.79      14.16       -58.24      
H           120.56      10.63       -56.53      
H           121.23      14.08       -61.88      
H           120.68      14.35       -60.25      
H           122.11871   15.04864    -60.76661   
H           123.29      12.55       -62.0       
H           124.28      13.19       -60.68      
H           123.88045   11.50785    -60.63546   
H           120.39      5.74        -61.34      
H           121.61      7.2         -61.09      
H           120.83755   6.29167     -59.73121   
H           118.28      6.09        -60.19      
H           118.19      7.49        -59.13      
H           117.25149   7.4767      -60.67505   
H           124.43      14.29       -55.42      
H           118.48      5.45        -65.76      
S           122.02      11.91       -54.28      
C           123.65      13.61       -55.39      
C           123.26      13.08       -54.19      
C           120.1       5.29        -70.92      
C           119.81      4.38        -69.83      
C           120.12      6.64        -70.62      
N           119.72      3.07        -69.8       
N           119.18      3.9         -67.67      
O           119.24      2.85        -68.53      
H           119.88      8.16        -69.14      
H           120.33      7.41        -71.33      
C           119.92      7.13        -69.27      
C           119.47      4.9         -68.51      
C           119.59      6.32        -68.23      
C           120.65      2.42        -87.26      
C           120.7       3.66        -86.65      
S           120.54      1.15        -86.07      
C           120.47      4.71        -80.79      
C           120.43      3.35        -81.1       
C           120.34      2.34        -80.14      
C           120.19      2.72        -78.81      
C           120.37      4.07        -78.49      
C           120.4       5.07        -79.5       
C           120.03      1.87        -77.56      
C           120.17      2.94        -76.5       
C           120.42      4.22        -77.06      
C           120.77      5.59        -82.02      
C           120.77      4.54        -83.01      
C           120.44      3.28        -82.53      
C           120.2       2.69        -75.14      
C           120.3       3.77        -74.26      
C           120.58      5.05        -74.83      
C           120.7       5.24        -76.21      
C           120.68      4.76        -84.4       
C           120.56      3.62        -85.22      
C           120.43      2.3         -84.73      
C           120.36      2.1         -83.36      
C           121.2       0.86        -77.41      
C           118.62      1.26        -77.41      
C           122.23      6.06        -81.95      
C           119.8       6.66        -82.43      
H           120.58      6.12        -79.19      
H           120.51      1.33        -80.44      
H           120.85      5.7         -84.87      
H           120.22      1.09        -82.95      
H           120.05      1.69        -74.74      
H           120.93      6.16        -76.7       
H           120.99      0.25        -76.51      
H           121.19      0.13        -78.18      
H           122.19467   1.30288     -77.46082   
H           118.39      0.33        -77.93      
H           118.5       0.92        -76.34      
H           117.81685   1.94745     -77.67545   
H           120.14      7.24        -83.29      
H           118.93      6.23        -82.79      
H           119.59152   7.36452     -81.62484   
H           122.38      6.79        -81.17      
H           122.41      6.56        -82.94      
H           122.88995   5.21555     -81.75131   
H           120.34      2.71        -72.31      
H           120.85      4.57        -87.1       
S           120.62      6.14        -73.5       
C           120.35      3.65        -72.87      
C           120.32      4.9         -72.29      
C           121.35      1.75        -91.54      
C           121.16      0.71        -90.67      
C           121.39      2.98        -90.99      
N           121.14      -0.58       -90.93      
N           120.99      -0.32       -88.66      
O           120.98      -1.25       -89.7       
H           121.21      4.13        -89.27      
H           121.68      3.85        -91.65      
C           121.05      3.16        -89.55      
C           120.97      0.82        -89.26      
C           120.81      2.12        -88.65      
C           125.79      0.6         -107.39     
C           125.26      1.75        -106.91     
S           126.1       -0.56       -106.07     
C           123.67      2.64        -101.08     
C           124.39      1.39        -101.38     
C           124.68      0.44        -100.46     
C           124.26      0.67        -99.21      
C           123.5       1.82        -98.81      
C           123.14      2.8         -99.77      
C           124.32      -0.46       -98.18      
C           123.77      0.31        -97.0       
C           123.17      1.57        -97.44      
C           123.45      3.43        -102.43     
C           124.36      2.6         -103.4      
C           124.66      1.39        -102.81     
C           123.57      -0.09       -95.67      
C           122.74      0.75        -94.81      
C           122.17      1.9         -95.29      
C           122.35      2.33        -96.6       
C           124.57      2.85        -104.74     
C           125.13      1.8         -105.48     
C           125.45      0.56        -104.92     
C           125.23      0.32        -103.57     
C           125.79      -0.97       -97.87      
C           123.35      -1.66       -98.57      
C           124.25      4.76        -102.2      
C           121.98      3.6         -102.98     
H           122.54      3.68        -99.58      
H           125.27      -0.45       -100.68     
H           124.36      3.8         -105.22     
H           125.52      -0.61       -103.16     
H           123.88      -1.11       -95.45      
H           121.88      3.29        -96.89      
H           125.89      -1.75       -97.22      
H           126.18      -1.49       -98.77      
H           126.42359   -0.14843    -97.5358    
H           123.92      -2.44       -99.2       
H           123.1       -2.18       -97.58      
H           122.47314   -1.41835    -99.17068   
H           121.97      3.98        -104.02     
H           121.46      2.66        -102.98     
H           121.40151   4.29697     -102.37363  
H           123.88      5.39        -101.3      
H           124.07      5.46        -103.01     
H           125.3345    4.65945     -102.15691  
H           122.76      -0.46       -92.98      
H           125.0       2.55        -107.53     
S           121.31      2.68        -94.02      
C           122.4       0.47        -93.44      
C           121.78      1.47        -92.91      
C           126.82      -0.85       -111.45     
C           126.39      0.48        -111.25     
C           126.69      -1.58       -110.27     
N           126.27      1.46        -112.09     
N           125.93      2.33        -110.09     
O           125.97      2.61        -111.41     
H           126.37      -1.81       -108.16     
H           126.76      -2.68       -110.35     
C           126.45      -1.08       -108.99     
C           126.11      1.02        -109.93     
C           126.2       0.23        -108.72     
C           128.25      -10.53      -124.91     
C           128.21      -10.95      -123.63     
S           128.16      -8.77       -125.05     
C           128.2       -7.12       -118.91     
C           128.01      -6.49       -120.12     
C           127.79      -5.08       -120.08     
C           127.84      -4.34       -118.97     
C           128.03      -5.02       -117.76     
C           128.24      -6.43       -117.66     
C           127.61      -2.85       -118.83     
C           127.42      -2.82       -117.28     
C           127.93      -3.97       -116.68     
C           128.49      -8.68       -119.06     
C           128.22      -8.85       -120.54     
C           128.07      -7.56       -121.16     
C           126.99      -1.79       -116.48     
C           127.17      -1.93       -115.07     
C           127.67      -3.14       -114.51     
C           128.05      -4.19       -115.3      
C           128.13      -9.97       -121.25     
C           128.15      -9.8        -122.65     
C           128.16      -8.58       -123.29     
C           128.05      -7.38       -122.5      
C           126.4       -2.3        -119.59     
C           128.96      -2.14       -119.03     
C           127.47      -9.52       -118.19     
C           129.93      -9.0        -118.7      
H           128.39      -6.95       -116.76     
H           127.58      -4.66       -121.05     
H           128.24      -10.9       -120.76     
H           127.9       -6.39       -122.88     
H           126.75      -0.88       -116.92     
H           128.42      -5.18       -114.9      
H           126.35      -2.62       -120.61     
H           126.53      -1.26       -119.72     
H           125.47515   -2.5118     -119.05344  
H           129.7       -2.73       -118.51     
H           128.91      -1.13       -118.63     
H           129.3239    -2.08905    -120.0562   
H           130.32      -9.8        -119.45     
H           130.54      -8.17       -118.9      
H           130.10535   -9.32966    -117.67595  
H           127.37      -9.25       -117.09     
H           127.67      -10.59      -118.23     
H           126.44474   -9.30491    -118.49113  
H           126.51      0.07        -114.29     
H           128.14      -11.96      -123.39     
S           127.85      -3.02       -112.77     
C           126.94      -0.92       -114.04     
C           127.09      -1.43       -112.8      
C           127.98      -13.01      -128.57     
C           128.58      -13.48      -127.39     
C           127.62      -11.69      -128.51     
N           129.1       -14.68      -127.14     
N           129.43      -13.42      -125.37     
O           129.62      -14.62      -125.84     
H           127.11      -9.95       -127.47     
H           127.15      -11.28      -129.41     
C           127.63      -10.88      -127.28     
C           128.73      -12.67      -126.18     
C           128.24      -11.33      -126.12     
C           121.42      -21.91      -140.95     
C           121.16      -20.6       -140.68     
S           122.78      -22.41      -139.96     
C           124.16      -17.05      -136.66     
C           124.55      -18.4       -136.78     
C           125.43      -18.97      -135.87     
C           125.93      -18.13      -134.88     
C           125.6       -16.82      -134.8      
C           124.69      -16.2       -135.67     
C           126.74      -18.57      -133.63     
C           126.81      -17.26      -132.83     
C           126.3       -16.26      -133.63     
C           123.08      -16.75      -137.69     
C           122.94      -18.08      -138.45     
C           123.87      -19.04      -137.9      
C           127.31      -17.06      -131.61     
C           127.25      -15.74      -131.11     
C           126.72      -14.72      -131.92     
C           126.3       -14.98      -133.19     
C           122.06      -18.51      -139.42     
C           122.1       -19.89      -139.85     
C           123.02      -20.79      -139.28     
C           123.85      -20.36      -138.23     
C           128.16      -19.03      -134.07     
C           126.0       -19.65      -132.71     
C           123.43      -15.65      -138.76     
C           121.69      -16.52      -137.04     
H           124.34      -15.14      -135.48     
H           125.74      -19.99      -135.96     
H           121.38      -17.78      -139.86     
H           124.45      -21.1       -137.66     
H           127.75      -17.81      -131.01     
H           125.7       -14.28      -133.74     
H           128.63      -19.63      -133.33     
H           128.03      -19.77      -134.84     
H           128.86597   -18.23492   -134.30989  
H           125.65      -20.54      -133.27     
H           126.63      -19.94      -131.83     
H           125.08212   -19.28712   -132.2475   
H           121.03      -16.31      -137.82     
H           121.42      -17.5       -136.73     
H           121.64838   -15.73607   -136.28382  
H           123.4       -14.74      -138.18     
H           122.67      -15.72      -139.54     
H           124.43201   -15.7049    -139.18551  
H           128.05      -15.93      -129.08     
H           120.31      -20.06      -141.11     
S           126.93      -13.18      -131.1      
C           127.7       -15.26      -129.85     
C           127.6       -13.91      -129.71     
C           118.98      -25.18      -142.98     
C           118.66      -23.79      -143.02     
C           120.12      -25.31      -142.33     
N           117.63      -23.29      -143.68     
N           118.73      -21.62      -142.56     
O           117.72      -21.93      -143.4      
H           121.79      -24.65      -141.21     
H           120.57      -26.31      -142.23     
C           120.92      -24.27      -141.68     
C           119.4       -22.68      -142.35     
C           120.62      -22.94      -141.61     
H           108.54      13.96       43.37       
H           118.24      -25.99      -143.1      
