612

C           110.65      7.85        34.69       
C           111.04      7.74        36.0        
S           109.14      8.72        34.59       
C           108.06      9.56        40.86       
C           107.38      9.84        39.63       
C           106.13      10.43       39.66       
C           105.7       10.95       40.86       
C           106.37      10.69       42.02       
C           107.58      10.02       42.07       
C           104.47      11.9        41.0        
C           104.42      11.93       42.57       
C           105.6       11.32       43.13       
C           109.45      8.97        40.59       
C           109.49      8.93        39.05       
C           108.23      9.37        38.54       
C           103.6       12.77       43.36       
C           103.96      13.05       44.67       
C           105.09      12.45       45.19       
C           105.96      11.62       44.43       
C           110.45      8.36        38.35       
C           110.16      8.35        36.93       
C           109.03      8.89        36.36       
C           108.02      9.46        37.14       
C           103.09      11.29       40.39       
C           104.83      13.33       40.5        
C           109.67      7.48        41.11       
C           110.62      9.8         41.13       
H           108.23      9.79        42.91       
H           105.56      10.68       38.73       
H           111.37      7.94        38.77       
H           107.14      9.94        36.73       
H           102.65      13.17       42.99       
H           106.86      11.16       44.78       
H           103.14      11.35       39.25       
H           102.31      12.05       40.63       
H           102.82605   10.3198     40.81089    
H           105.79      13.74       40.86       
H           103.98      14.05       40.9        
H           104.94656   13.43928    39.42177    
H           110.61      9.78        42.19       
H           111.53      9.32        40.78       
H           110.63423   10.80288    40.70324    
H           109.67      7.53        42.2        
H           110.62      7.14        40.7        
H           108.93131   6.80649     40.67547    
H           102.32      14.47       45.27       
H           111.92      7.25        36.44       
S           105.31      12.99       46.82       
C           103.15      13.82       45.6        
C           103.75      13.85       46.81       
C           112.69      6.41        31.13       
C           113.22      6.07        32.41       
C           111.65      7.23        31.14       
N           114.23      5.26        32.78       
N           113.25      6.1         34.59       
O           114.26      5.33        34.12       
H           110.1       8.43        32.19       
H           111.27      7.62        30.17       
C           111.04      7.81        32.3        
C           112.54      6.49        33.61       
C           111.41      7.47        33.5        
C           119.05      -1.99       18.41       
C           117.92      -1.18       18.31       
S           119.85      -1.66       19.92       
C           116.08      2.72        22.65       
C           117.16      1.91        23.05       
C           117.77      2.05        24.31       
C           117.18      2.95        25.22       
C           116.05      3.7         24.82       
C           115.53      3.61        23.53       
C           117.65      3.25        26.66       
C           116.64      4.34        26.98       
C           115.65      4.51        26.01       
C           115.63      2.42        21.24       
C           116.64      1.38        20.81       
C           117.56      1.12        21.89       
C           116.5       4.87        28.25       
C           115.3       5.47        28.61       
C           114.33      5.7         27.58       
C           114.53      5.35        26.23       
C           116.64      0.67        19.58       
C           117.68      -0.25       19.38       
C           118.66      -0.44       20.43       
C           118.57      0.22        21.65       
C           119.14      3.62        26.93       
C           117.25      2.02        27.57       
C           115.79      3.62        20.22       
C           114.2       1.73        21.13       
H           114.62      4.16        23.28       
H           118.65      1.54        24.56       
H           115.82      0.82        18.9        
H           119.26      0.09        22.5        
H           117.3       4.88        28.87       
H           113.78      5.5         25.46       
H           119.73      2.77        26.84       
H           119.28      4.03        27.91       
H           119.4486    4.35921     26.19079    
H           116.25      1.78        27.53       
H           117.42      2.37        28.61       
H           117.78954   1.10908     27.31074    
H           113.97      1.33        20.12       
H           114.2       0.88        21.82       
H           113.33425   2.37376     21.28539    
H           115.16      3.64        19.37       
H           115.5       4.53        20.84       
H           116.81763   3.82987     19.92329    
H           115.38      5.75        30.75       
H           117.25      -1.29       17.51       
S           112.85      6.33        28.29       
C           114.84      5.83        29.91       
C           113.54      6.16        29.96       
C           120.94      -4.81       15.61       
C           119.88      -3.97       15.18       
C           121.43      -4.56       16.87       
N           119.34      -3.81       13.97       
N           118.27      -2.48       15.46       
O           118.2       -3.09       14.22       
H           121.05      -3.8        18.83       
H           122.29      -5.13       17.21       
C           120.78      -3.7        17.76       
C           119.28      -3.06       16.11       
C           119.69      -2.93       17.41       
C           122.51      -20.37      11.32       
C           123.17      -19.76      12.35       
S           121.99      -19.18      10.08       
C           123.52      -13.87      13.2        
C           122.76      -14.26      12.02       
C           121.95      -13.44      11.34       
C           122.03      -12.12      11.77       
C           122.89      -11.66      12.79       
C           123.62      -12.52      13.54       
C           121.04      -11.05      11.32       
C           121.55      -9.87       12.21       
C           122.67      -10.23      12.98       
C           124.04      -15.1       13.9        
C           123.54      -16.2       12.98       
C           122.94      -15.66      11.82       
C           121.0       -8.57       12.25       
C           121.47      -7.68       13.22       
C           122.58      -8.12       14.06       
C           123.22      -9.31       13.92       
C           123.8       -17.49      13.23       
C           123.2       -18.35      12.3        
C           122.63      -17.85      11.04       
C           122.5       -16.52      10.74       
C           119.6       -11.55      11.51       
C           121.24      -10.56      9.86        
C           123.27      -15.23      15.26       
C           125.58      -15.29      14.09       
H           124.22      -12.17      14.41       
H           121.4       -13.81      10.46       
H           124.22      -17.87      14.14       
H           122.0       -16.19      9.84        
H           120.1       -8.26       11.67       
H           124.05      -9.6        14.6        
H           118.86      -10.9       11.11       
H           119.39      -12.38      10.83       
H           119.37137   -11.80007   12.546      
H           120.26      -10.68      9.32        
H           121.35      -9.48       9.92        
H           122.02848   -10.9791    9.2349      
H           125.84      -16.06      14.87       
H           126.08      -15.62      13.24       
H           126.1697    -14.42702   14.39923    
H           123.32      -16.25      15.63       
H           123.82      -14.61      15.95       
H           122.21662   -14.95583   15.20228    
H           120.05      -6.19       13.04       
H           123.56      -20.3       13.22       
S           122.85      -6.87       15.33       
C           120.94      -6.45       13.59       
C           121.37      -5.97       14.8        
C           121.44      -24.49      10.39       
C           122.34      -24.24      11.49       
C           121.08      -23.36      9.72        
N           122.79      -24.94      12.43       
N           123.38      -22.94      12.94       
O           123.61      -24.2       13.28       
H           121.25      -21.39      9.17        
H           120.39      -23.48      8.87        
C           121.5       -22.09      9.98        
C           122.67      -22.92      11.85       
C           122.19      -21.8       11.07       
C           113.01      -38.88      10.33       
C           112.44      -37.66      10.03       
S           114.69      -38.66      10.94       
C           115.57      -32.37      10.16       
C           116.27      -33.58      10.53       
C           117.67      -33.51      10.69       
C           118.32      -32.23      10.71       
C           117.56      -31.1       10.33       
C           116.2       -31.19      10.1        
C           119.73      -31.88      11.09       
C           119.75      -30.44      10.62       
C           118.45      -29.98      10.34       
C           114.11      -32.68      10.03       
C           114.1       -34.22      10.11       
C           115.3       -34.71      10.61       
C           120.8       -29.55      10.71       
C           120.58      -28.16      10.35       
C           119.24      -27.76      9.98        
C           118.19      -28.66      10.07       
C           113.03      -35.08      9.96        
C           113.28      -36.48      10.24       
C           114.56      -36.93      10.66       
C           115.61      -36.01      10.82       
C           120.6       -32.82      10.24       
C           120.05      -31.98      12.62       
C           113.56      -32.23      8.67        
C           113.2       -31.93      11.03       
H           115.63      -30.33      9.68        
H           118.15      -34.42      11.06       
H           112.06      -34.78      9.55        
H           116.57      -36.39      10.95       
H           121.83      -29.91      10.87       
H           117.15      -28.31      9.76        
H           121.62      -32.73      10.59       
H           120.39      -33.85      10.42       
H           120.58585   -32.64312   9.16454     
H           119.75      -32.99      12.94       
H           120.99      -31.71      12.87       
H           119.40389   -31.32637   13.20601    
H           112.92      -30.97      10.7        
H           112.21      -32.45      11.1        
H           113.59817   -31.79969   12.03627    
H           113.63      -31.14      8.55        
H           112.57      -32.59      8.46        
H           114.05047   -32.60837   7.77313     
H           122.55      -27.12      10.8        
H           111.35      -37.56      9.77        
S           119.21      -26.02      9.79        
C           121.51      -27.02      10.49       
C           120.93      -25.82      10.12       
C           110.63      -42.64      10.24       
C           111.98      -42.62      10.6        
C           110.17      -41.41      10.0        
N           112.75      -43.59      11.01       
N           113.97      -41.69      11.13       
O           113.97      -43.02      11.35       
H           110.34      -39.24      9.7         
H           109.13      -41.34      9.7         
C           110.9       -40.15      9.9         
C           112.81      -41.44      10.52       
C           112.27      -40.1       10.27       
C           101.86      -54.04      3.38        
C           101.21      -53.01      4.09        
S           103.39      -54.35      4.28        
C           103.9       -49.64      8.33        
C           104.57      -50.85      8.02        
C           105.95      -50.99      8.23        
C           106.74      -49.86      8.75        
C           106.07      -48.62      9.09        
C           104.65      -48.56      8.93        
C           108.26      -49.66      9.13        
C           108.35      -48.18      9.33        
C           107.03      -47.58      9.52        
C           102.55      -49.57      7.64        
C           102.49      -50.96      6.93        
C           103.64      -51.71      7.29        
C           109.48      -47.42      9.5         
C           109.31      -46.08      9.71        
C           108.06      -45.55      10.06       
C           106.86      -46.28      9.92        
C           101.59      -51.45      6.06        
C           101.87      -52.58      5.29        
C           103.04      -53.25      5.59        
C           103.95      -52.87      6.59        
C           109.09      -50.15      7.9         
C           108.57      -50.55      10.31       
C           102.44      -48.34      6.67        
C           101.46      -49.54      8.72        
H           104.12      -47.67      9.37        
H           106.48      -51.92      7.94        
H           100.74      -50.85      5.79        
H           104.84      -53.4       6.73        
H           110.4       -47.87      9.3         
H           105.95      -45.72      10.16       
H           109.33      -51.29      7.83        
H           110.13      -49.9       7.95        
H           108.76594   -49.81874   6.91341     
H           108.35      -51.58      10.11       
H           109.68      -50.45      10.34       
H           108.03177   -50.28779   11.22085    
H           100.51      -49.71      8.21        
H           101.67      -50.4       9.35        
H           101.3285    -48.63411   9.31175     
H           101.41      -48.01      6.59        
H           102.93      -47.54      7.19        
H           102.89453   -48.55644   5.70322     
H           111.39      -45.28      9.76        
H           100.33      -52.58      3.66        
S           108.16      -43.77      10.23       
C           110.3       -45.08      9.78        
C           109.91      -43.83      9.94        
C           101.35      -55.41      -0.86       
C           100.34      -54.57      -0.2        
C           102.28      -55.84      -0.0        
N           99.21       -54.14      -0.62       
N           99.44       -53.31      1.49        
O           98.73       -53.27      0.34        
H           103.3       -55.65      1.87        
H           103.03      -56.53      -0.3        
C           102.47      -55.28      1.33        
C           100.46      -54.11      1.22        
C           101.66      -54.47      2.01        
C           102.96      -59.48      -16.91      
C           103.93      -59.41      -15.93      
S           101.41      -58.88      -16.21      
C           103.06      -58.17      -10.08      
C           101.95      -57.96      -10.83      
C           100.73      -57.6       -10.27      
C           100.66      -57.28      -8.93       
C           101.79      -57.54      -8.14       
C           103.0       -57.92      -8.7        
C           99.47       -56.89      -8.11       
C           100.08      -56.96      -6.72       
C           101.45      -57.26      -6.81       
C           104.32      -58.17      -10.9       
C           103.69      -58.56      -12.23      
C           102.26      -58.27      -12.2       
C           99.52       -56.68      -5.45       
C           100.39      -56.5       -4.33       
C           101.79      -56.77      -4.52       
C           102.31      -57.23      -5.76       
C           104.26      -58.82      -13.46      
C           103.47      -59.04      -14.62      
C           102.05      -58.76      -14.57      
C           101.5       -58.33      -13.38      
C           98.31       -57.88      -8.18       
C           98.91       -55.47      -8.37       
C           105.3       -59.31      -10.44      
C           104.99      -56.8       -11.13      
H           103.85      -58.06      -8.08       
H           99.83       -57.55      -10.87      
H           105.32      -59.11      -13.57      
H           100.44      -58.12      -13.41      
H           98.48       -56.45      -5.26       
H           103.36      -57.47      -5.83       
H           97.44       -57.41      -7.74       
H           98.01       -58.16      -9.16       
H           98.54247    -58.83806   -7.71506    
H           98.03       -55.42      -9.02       
H           98.53       -55.09      -7.42       
H           99.63667    -54.74333   -8.73333    
H           105.47      -56.77      -12.1       
H           104.28      -55.94      -11.26      
H           105.8122    -56.53547   -10.46509   
H           106.19      -59.21      -11.12      
H           105.68      -59.08      -9.47       
H           104.83837   -60.29621   -10.39104   
H           99.16       -55.78      -2.68       
H           104.96      -59.66      -16.02      
S           102.66      -56.49      -3.04       
C           100.15      -56.01      -3.0        
C           101.25      -55.97      -2.2        
C           103.37      -60.92      -21.07      
C           104.5       -60.79      -20.22      
C           102.2       -60.65      -20.4       
N           105.77      -61.16      -20.5       
N           105.72      -60.28      -18.41      
O           106.5       -60.72      -19.47      
H           101.22      -59.65      -18.88      
H           101.3       -60.61      -20.95      
C           102.12      -60.13      -19.06      
C           104.41      -60.27      -18.85      
C           103.17      -59.88      -18.29      
C           105.38      -68.06      -35.72      
C           106.46      -67.7       -35.05      
S           103.95      -68.13      -34.7       
C           106.13      -65.9       -29.21      
C           104.94      -66.39      -29.76      
C           103.71      -66.25      -29.09      
C           103.69      -65.73      -27.83      
C           104.88      -65.15      -27.27      
C           106.11      -65.17      -28.01      
C           102.45      -65.34      -27.04      
C           103.04      -64.56      -25.9       
C           104.44      -64.3       -26.12      
C           107.37      -66.33      -30.08      
C           106.61      -66.85      -31.3       
C           105.24      -66.88      -31.09      
C           102.4       -63.83      -24.94      
C           103.1       -62.96      -24.12      
C           104.43      -62.61      -24.44      
C           105.11      -63.24      -25.49      
C           107.15      -67.18      -32.58      
C           106.27      -67.5       -33.64      
C           104.92      -67.63      -33.29      
C           104.33      -67.38      -32.09      
C           101.69      -66.6       -26.48      
C           101.47      -64.44      -27.87      
C           108.35      -67.46      -29.51      
C           108.16      -65.09      -30.51      
H           107.0       -64.64      -27.62      
H           102.8       -66.61      -29.49      
H           108.21      -67.0       -32.81      
H           103.29      -67.48      -31.93      
H           101.33      -63.9       -24.87      
H           106.11      -62.96      -25.73      
H           100.8       -66.27      -26.01      
H           101.31      -67.21      -27.28      
H           102.29332   -67.14018   -25.7504    
H           101.18      -64.92      -28.8       
H           100.55      -64.36      -27.36      
H           101.91921   -63.48454   -28.14095   
H           108.59      -65.27      -31.47      
H           107.45      -64.3       -30.67      
H           108.94857   -64.84789   -29.79752   
H           108.63      -67.32      -28.5       
H           109.23      -67.5       -30.12      
H           107.82286   -68.4116    -29.44154   
H           101.63      -62.31      -22.59      
H           107.43      -67.6       -35.51      
S           105.03      -61.32      -23.34      
C           102.6       -62.2       -23.03      
C           103.52      -61.47      -22.4       
C           104.32      -67.7       -40.09      
C           105.49      -68.39      -39.63      
C           103.57      -67.29      -39.03      
N           106.4       -68.95      -40.41      
N           107.05      -69.15      -38.24      
O           107.36      -69.49      -39.54      
H           103.32      -66.9       -36.95      
H           102.67      -66.8       -39.27      
C           103.98      -67.39      -37.65      
C           105.88      -68.56      -38.22      
C           105.1       -68.09      -37.15      
C           96.12       -65.26      -54.15      
C           96.6        -64.21      -53.44      
S           96.7        -66.76      -53.57      
C           99.71       -64.99      -48.27      
C           99.67       -66.07      -49.14      
C           100.28      -67.28      -48.87      
C           100.88      -67.44      -47.7       
C           100.92      -66.31      -46.78      
C           100.32      -65.09      -47.01      
C           101.79      -68.61      -47.17      
C           102.1       -68.13      -45.75      
C           101.57      -66.77      -45.55      
C           99.1        -63.75      -48.99      
C           98.65       -64.42      -50.26      
C           98.9        -65.79      -50.31      
C           102.89      -68.74      -44.82      
C           103.12      -68.05      -43.59      
C           102.5       -66.82      -43.43      
C           101.73      -66.19      -44.36      
C           97.89       -63.81      -51.17      
C           97.38       -64.62      -52.24      
C           97.51       -66.0       -52.24      
C           98.34       -66.61      -51.29      
C           103.13      -68.73      -48.01      
C           101.04      -70.03      -47.09      
C           100.21      -62.68      -49.44      
C           97.92       -63.11      -48.32      
H           100.36      -64.25      -46.32      
H           100.13      -68.15      -49.48      
H           97.74       -62.73      -51.18      
H           98.53       -67.64      -51.36      
H           103.43      -69.67      -45.06      
H           101.41      -65.13      -44.24      
H           103.28      -69.78      -47.97      
H           102.84      -68.56      -49.09      
H           103.9356    -68.1258    -47.59281   
H           100.85      -70.51      -48.07      
H           101.73      -70.68      -46.61      
H           100.09707   -70.01633   -46.54337   
H           97.54       -62.28      -48.92      
H           97.18       -63.89      -48.31      
H           98.1173     -62.70809   -47.3262    
H           100.34      -61.94      -48.62      
H           99.94       -62.16      -50.33      
H           101.21547   -63.09068   -49.53205   
H           104.53      -69.36      -42.35      
H           96.33       -63.18      -53.65      
S           102.88      -66.14      -41.9       
C           104.03      -68.39      -42.51      
C           103.81      -67.56      -41.43      
C           93.12       -64.75      -57.45      
C           93.76       -66.04      -57.17      
C           93.67       -63.76      -56.66      
N           93.73       -67.23      -57.73      
N           95.37       -67.45      -56.17      
O           94.72       -67.97      -57.28      
H           94.85       -63.1       -55.01      
H           93.4        -62.74      -56.83      
C           94.59       -63.99      -55.55      
C           94.88       -66.22      -56.2       
C           95.21       -65.16      -55.31      
C           81.47       -64.45      -69.21      
C           81.54       -65.45      -68.31      
S           82.52       -63.05      -68.74      
C           85.69       -65.42      -63.67      
C           85.4        -64.18      -64.34      
C           86.01       -62.99      -63.92      
C           86.99       -63.07      -62.96      
C           87.24       -64.28      -62.36      
C           86.71       -65.47      -62.77      
C           87.81       -61.95      -62.28      
C           88.79       -62.8       -61.43      
C           88.33       -64.13      -61.45      
C           84.72       -66.47      -64.28      
C           83.94       -65.67      -65.39      
C           84.47       -64.36      -65.5       
C           89.86       -62.37      -60.61      
C           90.51       -63.39      -59.82      
C           89.99       -64.73      -59.92      
C           88.95       -65.15      -60.72      
C           82.91       -66.08      -66.16      
C           82.53       -65.21      -67.22      
C           83.21       -63.97      -67.37      
C           84.1        -63.48      -66.47      
C           86.95       -61.03      -61.3       
C           88.57       -61.08      -63.32      
C           83.75       -67.0       -63.2       
C           85.36       -67.67      -65.04      
H           86.93       -66.4       -62.31      
H           85.74       -62.08      -64.39      
H           82.37       -66.96      -65.96      
H           84.42       -62.44      -66.57      
H           90.19       -61.33      -60.58      
H           88.57       -66.16      -60.69      
H           86.41       -60.25      -61.79      
H           87.63       -60.68      -60.53      
H           86.25093    -61.59934   -60.68742   
H           89.34       -61.7       -63.89      
H           89.21       -60.43      -62.78      
H           87.88771    -60.50432   -63.94543   
H           84.67       -68.44      -65.44      
H           85.84       -67.14      -65.85      
H           86.05885    -68.23196   -64.4204    
H           84.33       -67.34      -62.33      
H           83.15       -67.75      -63.69      
H           83.09873    -66.20867   -62.82885   
H           92.0        -62.39      -58.65      
H           80.95       -66.36      -68.34      
S           90.99       -65.75      -58.95      
C           91.59       -63.33      -58.93      
C           92.03       -64.48      -58.39      
C           79.5        -64.19      -73.12      
C           79.01       -65.1       -72.13      
C           80.62       -63.53      -72.72      
N           77.88       -65.79      -72.15      
N           78.88       -65.98      -70.13      
O           77.92       -66.47      -70.96      
H           82.24       -63.15      -71.41      
H           81.03       -62.77      -73.34      
C           81.22       -63.6       -71.44      
C           79.63       -65.23      -70.84      
C           80.79       -64.4       -70.49      
C           69.76       -58.64      -85.38      
C           69.32       -59.22      -84.23      
S           71.51       -58.52      -85.4       
C           73.05       -61.56      -80.06      
C           73.68       -60.86      -81.1       
C           75.12       -60.81      -81.19      
C           75.85       -61.29      -80.08      
C           75.16       -61.83      -78.93      
C           73.78       -62.04      -79.03      
C           77.32       -61.05      -79.65      
C           77.46       -61.7       -78.29      
C           76.15       -61.98      -77.87      
C           71.54       -61.66      -80.27      
C           71.44       -60.69      -81.43      
C           72.69       -60.38      -81.99      
C           78.53       -62.11      -77.57      
C           78.36       -62.68      -76.3       
C           77.05       -62.93      -75.85      
C           75.92       -62.59      -76.64      
C           70.29       -60.3       -82.11      
C           70.38       -59.64      -83.32      
C           71.64       -59.36      -83.9       
C           72.88       -59.74      -83.24      
C           77.64       -59.55      -79.62      
C           78.21       -61.66      -80.81      
C           70.74       -61.09      -79.08      
C           71.03       -63.04      -80.75      
H           73.25       -62.45      -78.1       
H           75.63       -60.37      -82.06      
H           69.23       -60.55      -81.9       
H           73.86       -59.46      -83.58      
H           79.53       -61.93      -78.02      
H           74.89       -62.87      -76.39      
H           77.36       -59.27      -80.61      
H           76.94       -59.09      -78.92      
H           78.63336    -59.2797    -79.26185   
H           77.93       -61.18      -81.79      
H           79.28       -61.37      -80.81      
H           78.07479    -62.7203    -81.02348   
H           70.0        -62.89      -81.15      
H           71.64       -63.31      -81.62      
H           71.08023    -63.86519   -80.03962   
H           70.63       -61.81      -78.31      
H           69.72       -60.95      -79.39      
H           71.05352    -60.12703   -78.6769    
H           80.41       -63.03      -75.6       
H           68.27       -59.43      -84.07      
S           77.07       -63.9       -74.39      
C           79.35       -63.16      -75.42      
C           78.82       -63.7       -74.29      
C           67.28       -56.98      -88.65      
C           66.8        -57.13      -87.34      
C           68.6        -57.31      -88.81      
N           65.54       -57.01      -86.95      
N           66.77       -57.73      -85.21      
O           65.48       -57.35      -85.62      
H           70.48       -57.99      -87.98      
H           69.07       -57.28      -89.79      
C           69.43       -57.76      -87.68      
C           67.58       -57.65      -86.26      
C           68.98       -57.93      -86.42      
H           103.32      14.39       47.65       
H           66.67       -56.3       -89.27      
