612

C           137.74      34.13       45.32       
C           138.28      35.37       45.08       
S           137.59      33.86       47.0        
C           139.67      39.31       49.47       
C           139.01      38.09       49.8        
C           138.77      37.85       51.12       
C           138.96      38.9        52.06       
C           139.36      40.13       51.63       
C           139.76      40.32       50.35       
C           138.35      38.98       53.44       
C           138.68      40.42       53.82       
C           139.33      41.05       52.73       
C           139.84      39.34       47.94       
C           139.37      37.96       47.57       
C           138.93      37.21       48.7        
C           138.37      41.15       54.93       
C           138.7       42.5        54.95       
C           139.42      43.12       53.87       
C           139.79      42.35       52.76       
C           139.34      37.33       46.34       
C           138.78      36.07       46.25       
C           138.26      35.4        47.39       
C           138.37      35.95       48.67       
C           139.04      38.06       54.52       
C           136.82      38.87       53.47       
C           141.37      39.52       47.58       
C           138.85      40.43       47.31       
H           140.15      41.24       50.03       
H           138.43      36.86       51.47       
H           139.55      37.84       45.42       
H           137.88      35.5        49.56       
H           137.87      40.64       55.82       
H           140.43      42.67       51.97       
H           138.83      37.04       54.14       
H           138.61      38.17       55.54       
H           140.12901   38.10415    54.53472    
H           136.4       39.65       52.71       
H           136.44      39.11       54.47       
H           136.45268   37.87398    53.22276    
H           138.83      41.31       47.94       
H           139.22      40.77       46.33       
H           137.86729   40.00679    47.10198    
H           141.74      40.43       47.99       
H           141.43      39.71       46.52       
H           141.98726   38.67763    47.89226    
H           137.98      43.06       56.97       
H           138.53      35.69       44.1        
S           139.9       44.75       54.24       
C           138.48      43.43       56.06       
C           139.05      44.68       55.8        
C           135.72      31.8        42.18       
C           136.83      32.68       41.85       
C           135.48      31.65       43.54       
N           137.35      32.98       40.72       
N           138.5       34.03       42.41       
O           138.21      33.97       41.08       
H           135.93      32.12       45.57       
H           134.83      30.88       43.93       
C           136.23      32.31       44.57       
C           137.56      33.31       42.93       
C           137.22      33.21       44.34       
C           127.99      20.95       32.21       
C           127.49      21.18       33.48       
S           129.4       21.93       31.83       
C           130.59      24.78       37.3        
C           131.2       24.6        36.03       
C           132.25      25.36       35.64       
C           132.71      26.4        36.49       
C           132.19      26.52       37.79       
C           131.21      25.63       38.21       
C           133.76      27.43       36.22       
C           133.82      28.14       37.52       
C           132.86      27.61       38.43       
C           129.34      23.88       37.44       
C           129.19      23.28       36.07       
C           130.27      23.83       35.27       
C           134.55      29.28       37.96       
C           134.51      29.64       39.28       
C           133.62      28.96       40.17       
C           132.69      28.09       39.72       
C           128.21      22.5        35.56       
C           128.27      22.14       34.22       
C           129.39      22.59       33.46       
C           130.36      23.59       33.95       
C           133.36      28.5        35.15       
C           135.21      26.8        36.0        
C           128.12      24.76       37.74       
C           129.54      22.74       38.5        
H           130.75      25.79       39.16       
H           132.68      25.26       34.65       
H           127.5       22.06       36.23       
H           131.21      23.92       33.41       
H           135.24      29.77       37.29       
H           132.02      27.63       40.46       
H           133.24      27.91       34.21       
H           134.24      29.16       35.07       
H           132.44538   29.03175    35.41233    
H           135.48      26.44       36.96       
H           135.91      27.63       35.8        
H           135.33296   26.06909    35.20078    
H           128.77      21.98       38.6        
H           130.38      22.12       38.17       
H           129.93428   23.08317    39.45649    
H           128.41      25.43       38.46       
H           127.79      25.31       36.86       
H           127.20746   24.2375     38.02701    
H           136.01      31.27       39.4        
H           126.6       20.7        33.85       
S           133.84      29.68       41.76       
C           135.33      30.69       39.94       
C           135.07      30.84       41.27       
C           125.73      18.93       29.01       
C           127.14      19.07       28.89       
C           125.22      19.59       30.13       
N           127.95      18.54       27.97       
N           129.17      19.57       29.63       
O           129.16      18.85       28.44       
H           125.48      20.57       32.05       
H           124.19      19.79       30.29       
C           125.98      20.16       31.18       
C           127.92      19.65       29.96       
C           127.34      20.17       31.14       
C           113.96      13.37       18.92       
C           113.78      13.35       20.26       
S           115.6       13.8        18.41       
C           118.34      14.8        24.13       
C           118.62      14.75       22.7        
C           119.91      15.07       22.22       
C           120.86      15.51       23.13       
C           120.55      15.51       24.5        
C           119.29      15.19       25.06       
C           122.16      16.21       22.87       
C           122.78      16.42       24.27       
C           121.69      16.16       25.19       
C           116.91      14.29       24.29       
C           116.43      14.11       22.84       
C           117.46      14.4        21.93       
C           123.94      17.03       24.68       
C           124.03      17.34       26.03       
C           122.93      17.1        26.9        
C           121.73      16.46       26.48       
C           115.16      13.9        22.33       
C           115.03      13.77       20.97       
C           116.1       14.03       20.1        
C           117.36      14.29       20.59       
C           121.71      17.53       22.15       
C           123.16      15.42       21.97       
C           116.0       15.32       24.95       
C           116.92      12.94       25.03       
H           119.06      15.26       26.13       
H           120.13      15.14       21.2        
H           114.31      13.83       23.02       
H           118.2       14.4        19.92       
H           124.74      17.26       23.99       
H           120.94      16.35       27.23       
H           122.62      17.96       21.77       
H           121.08      17.32       21.36       
H           121.24216   18.27135    22.79778    
H           122.86      15.5        20.92       
H           124.02      15.98       21.99       
H           123.26084   14.37562    22.26531    
H           117.65      12.94       25.78       
H           115.96      12.73       25.52       
H           117.11757   12.10581    24.3568     
H           115.03      14.84       25.11       
H           116.3       15.56       25.94       
H           115.93577   16.25493    24.39333    
H           125.97      18.36       26.16       
H           112.85      12.99       20.73       
S           123.22      17.8        28.45       
C           125.06      18.09       26.69       
C           124.85      18.31       28.01       
C           111.15      11.68       15.87       
C           111.92      12.85       15.63       
C           111.42      11.24       17.13       
N           111.96      13.62       14.56       
N           113.37      14.54       16.12       
O           112.81      14.65       14.89       
H           112.44      11.19       19.02       
H           110.94      10.31       17.48       
C           112.28      11.82       18.09       
C           112.8       13.44       16.61       
C           113.03      12.88       17.89       
C           101.64      3.02        5.37        
C           102.57      3.9         5.09        
S           101.4       2.97        7.17        
C           105.79      7.13        9.09        
C           104.87      6.23        9.68        
C           104.66      6.22        11.09       
C           105.35      7.13        11.89       
C           106.32      7.9         11.31       
C           106.5       7.91        9.95        
C           105.24      7.41        13.42       
C           106.39      8.44        13.58       
C           106.94      8.73        12.31       
C           105.6       7.22        7.56        
C           104.7       5.97        7.38        
C           104.22      5.48        8.62        
C           107.0       9.01        14.71       
C           108.22      9.75        14.57       
C           108.68      10.09       13.27       
C           108.02      9.6         12.08       
C           104.19      5.48        6.21        
C           103.22      4.5         6.24        
C           102.73      4.05        7.45        
C           103.24      4.52        8.71        
C           105.51      6.11        14.23       
C           103.83      8.06        13.9        
C           106.99      7.13        6.84        
C           104.81      8.37        6.94        
H           107.32      8.54        9.59        
H           104.04      5.37        11.51       
H           104.5       5.89        5.21        
H           102.81      4.19        9.66        
H           106.59      8.85        15.68       
H           108.46      9.85        11.18       
H           105.08      6.33        15.21       
H           104.92      5.22        13.75       
H           106.58459   5.94144     14.30023    
H           103.14      7.22        14.04       
H           103.89      8.54        14.84       
H           103.36399   8.71241     13.16156    
H           104.95      8.5         5.88        
H           103.77      8.28        7.16        
H           105.10166   9.2936      7.43999     
H           107.61      7.82        7.37        
H           106.76      7.16        5.79        
H           107.39773   6.12105     6.9022      
H           108.91      10.26       16.66       
H           102.76      4.32        4.05        
S           110.18      11.01       13.3        
C           109.16      10.28       15.55       
C           110.17      11.01       15.08       
C           98.31       1.45        2.76        
C           98.92       0.7         3.8         
C           98.87       2.66        2.6         
N           98.68       -0.53       4.21        
N           100.25      0.29        5.59        
O           99.35       -0.66       5.41        
H           100.32      4.23        3.11        
H           98.58       3.34        1.81        
C           99.98       3.21        3.39        
C           100.0       1.2         4.67        
C           100.55      2.53        4.45        
C           88.3        -3.29       -9.39       
C           88.29       -2.0        -8.94       
S           88.92       -4.36       -8.14       
C           91.49       -0.39       -4.07       
C           91.27       -1.75       -4.16       
C           92.05       -2.7        -3.38       
C           93.0        -2.15       -2.5        
C           93.2        -0.76       -2.5        
C           92.44       0.13        -3.28       
C           94.02       -2.91       -1.62       
C           94.63       -1.7        -0.94       
C           94.26       -0.49       -1.53       
C           90.48       0.47        -4.96       
C           89.97       -0.65       -5.87       
C           90.39       -1.9        -5.32       
C           95.44       -1.77       0.19        
C           96.02       -0.56       0.59        
C           95.79       0.59        -0.19       
C           94.77       0.68        -1.14       
C           89.18       -0.58       -7.02       
C           88.97       -1.81       -7.71       
C           89.27       -3.07       -7.08       
C           90.04       -3.11       -5.94       
C           95.04       -3.66       -2.53       
C           93.31       -3.93       -0.63       
C           91.17       1.48        -5.87       
C           89.23       1.17        -4.28       
H           92.51       1.23        -3.17       
H           92.05       -3.8        -3.51       
H           88.82       0.36        -7.45       
H           90.45       -4.1        -5.52       
H           95.77       -2.65       0.6         
H           94.66       1.61        -1.66       
H           94.57       -4.57       -2.81       
H           95.88       -3.93       -2.0        
H           95.46556    -3.08549    -3.35276    
H           93.08       -4.83       -1.22       
H           93.87       -4.33       0.17        
H           92.38547    -3.50049    -0.24417    
H           89.26       2.25        -4.52       
H           88.28       0.88        -4.6        
H           89.21571    1.01286     -3.20148    
H           90.42       1.82        -6.5        
H           91.52       2.39        -5.3        
H           91.99409    1.03954     -6.43123    
H           97.26       -1.29       2.2         
H           88.02       -1.21       -9.6        
S           96.69       1.88        0.61        
C           96.98       -0.41       1.6         
C           97.34       0.87        1.85        
C           87.22       -5.34       -13.14      
C           87.21       -3.88       -13.09      
C           87.52       -5.97       -11.96      
N           86.95       -3.0        -14.0       
N           87.49       -1.9        -12.13      
O           87.14       -1.75       -13.42      
H           88.11       -5.8        -9.95       
H           87.28       -7.01       -11.83      
C           87.92       -5.22       -10.83      
C           87.55       -3.21       -11.92      
C           87.96       -3.87       -10.71      
C           91.04       -8.47       -27.94      
C           91.6        -9.28       -26.98      
S           89.36       -8.11       -27.66      
C           88.76       -9.9        -21.58      
C           88.04       -9.24       -22.56      
C           86.83       -8.55       -22.24      
C           86.56       -8.3        -20.89      
C           87.39       -8.88       -19.88      
C           88.38       -9.78       -20.23      
C           85.61       -7.36       -20.25      
C           86.01       -7.43       -18.78      
C           87.11       -8.29       -18.56      
C           90.09       -10.49      -22.13      
C           89.99       -9.99       -23.57      
C           88.72       -9.38       -23.83      
C           85.6        -6.58       -17.76      
C           86.2        -6.73       -16.46      
C           87.32       -7.61       -16.25      
C           87.84       -8.45       -17.27      
C           90.98       -10.07      -24.58      
C           90.7        -9.52       -25.84      
C           89.44       -8.88       -26.06      
C           88.44       -8.87       -25.08      
C           84.22       -8.04       -20.61      
C           85.7        -5.89       -20.83      
C           90.06       -12.02      -22.02      
C           91.28       -9.77       -21.39      
H           88.91       -10.33      -19.46      
H           86.14       -8.09       -23.05      
H           91.94       -10.5       -24.38      
H           87.55       -8.29       -25.21      
H           84.85       -5.76       -17.96      
H           88.83       -9.0        -17.26      
H           83.87       -7.71       -21.59      
H           84.41       -9.1        -20.57      
H           83.40022    -7.78776    -19.93736   
H           85.63       -6.02       -21.96      
H           84.97       -5.15       -20.48      
H           86.67051    -5.45218    -20.59649   
H           91.38       -10.07      -20.43      
H           92.29       -9.82       -21.92      
H           91.10891    -8.69354    -21.39713   
H           90.13       -12.38      -21.01      
H           89.08       -12.28      -22.49      
H           90.79726    -12.60547   -22.56933   
H           85.44       -4.96       -15.35      
H           92.66       -9.5        -26.86      
S           87.93       -7.53       -14.57      
C           86.06       -5.83       -15.34      
C           86.81       -6.2        -14.26      
C           92.98       -5.99       -31.17      
C           93.44       -7.33       -30.83      
C           91.85       -5.73       -30.52      
N           94.4        -7.99       -31.36      
N           93.81       -9.14       -29.52      
O           94.63       -9.08       -30.6       
H           90.31       -6.1        -29.05      
H           91.39       -4.84       -30.84      
C           91.18       -6.57       -29.51      
C           92.97       -8.12       -29.74      
C           91.71       -7.78       -29.09      
C           93.61       2.76        -45.41      
C           94.07       1.45        -45.28      
S           93.35       3.38        -43.82      
C           94.62       -1.65       -40.15      
C           94.15       -0.32       -40.0       
C           93.63       0.16        -38.81      
C           93.59       -0.64       -37.67      
C           93.99       -1.99       -37.8       
C           94.48       -2.48       -39.06      
C           92.96       -0.33       -36.3       
C           93.24       -1.61       -35.62      
C           93.76       -2.64       -36.45      
C           95.01       -1.94       -41.59      
C           94.7        -0.61       -42.21      
C           94.27       0.37        -41.3       
C           93.08       -1.94       -34.31      
C           93.39       -3.24       -33.8       
C           93.84       -4.28       -34.62      
C           94.06       -3.95       -36.0       
C           94.63       -0.34       -43.55      
C           94.24       0.91        -43.97      
C           93.87       1.87        -43.08      
C           93.87       1.65        -41.73      
C           91.47       0.03        -36.5       
C           93.61       0.86        -35.5       
C           94.24       -3.05       -42.27      
C           96.52       -2.34       -41.63      
H           94.85       -3.56       -39.06      
H           93.44       1.23        -38.72      
H           94.95       -1.04       -44.35      
H           93.49       2.37        -40.98      
H           92.73       -1.12       -33.62      
H           94.54       -4.81       -36.61      
H           91.36       1.07        -36.95      
H           91.1        -0.57       -37.32      
H           90.8165     -0.04647    -35.63098   
H           93.34       1.78        -35.89      
H           93.32       0.87        -34.42      
H           94.68791    0.96365     -35.62437   
H           96.73       -3.38       -41.35      
H           96.93       -2.25       -42.68      
H           97.13014    -1.71567    -40.97729   
H           94.36       -3.93       -41.64      
H           94.59       -3.27       -43.24      
H           93.1589     -2.91748    -42.22815   
H           92.73       -3.15       -31.64      
H           94.36       0.88        -46.19      
S           94.0        -5.79       -33.76      
C           93.15       -3.78       -32.48      
C           93.46       -5.09       -32.22      
C           92.65       5.02        -49.05      
C           92.51       3.61        -49.06      
C           93.05       5.61        -47.83      
N           91.93       2.78        -49.96      
N           92.4        1.66        -48.05      
O           91.93       1.59        -49.3       
H           93.79       5.32        -45.84      
H           93.2        6.68        -47.78      
C           93.49       4.81        -46.74      
C           92.79       2.91        -47.83      
C           93.25       3.46        -46.65      
C           85.76       15.74       -59.22      
C           86.29       16.12       -58.03      
S           86.69       14.43       -59.96      
C           89.65       12.35       -54.77      
C           89.3        11.78       -55.99      
C           89.59       10.47       -56.3       
C           90.24       9.66        -55.36      
C           90.57       10.25       -54.1       
C           90.39       11.56       -53.86      
C           90.9        8.3         -55.57      
C           91.39       8.02        -54.15      
C           91.2        9.16        -53.34      
C           89.2        13.73       -54.57      
C           88.55       14.04       -55.9       
C           88.64       12.89       -56.77      
C           91.76       6.84        -53.62      
C           91.96       6.76        -52.25      
C           91.95       7.96        -51.51      
C           91.6        9.22        -52.05      
C           87.85       15.19       -56.28      
C           87.25       15.16       -57.55      
C           87.37       14.11       -58.4       
C           88.05       12.94       -58.02      
C           92.06       8.53        -56.56      
C           89.88       7.21        -56.11      
C           90.38       14.59       -54.27      
C           88.02       13.86       -53.49      
H           90.9        12.0        -52.99      
H           89.13       10.11       -57.18      
H           87.72       16.04       -55.68      
H           88.11       12.12       -58.73      
H           91.61       5.9         -54.16      
H           91.48       10.14       -51.47      
H           91.63       8.48        -57.56      
H           92.48       9.52        -56.52      
H           92.86468    7.79529     -56.58799   
H           89.25       7.72        -56.92      
H           90.4        6.31        -56.48      
H           89.14635    6.83249     -55.39772   
H           87.9        14.91       -53.43      
H           87.14       13.36       -53.82      
H           88.29051    13.51118    -52.49338   
H           90.97       14.24       -53.42      
H           89.86       15.51       -54.19      
H           91.09882    14.69782    -55.08226   
H           92.6        4.65        -51.94      
H           85.8        16.87       -57.43      
S           92.18       7.61        -49.85      
C           92.4        5.62        -51.44      
C           92.49       5.94        -50.16      
C           82.48       17.82       -61.37      
C           83.34       18.56       -60.44      
C           82.85       16.55       -61.65      
N           83.29       19.81       -60.03      
N           85.01       18.73       -58.97      
O           84.35       19.93       -59.17      
H           84.17       14.87       -61.28      
H           82.28       15.89       -62.34      
C           83.95       15.87       -60.96      
C           84.39       17.84       -59.75      
C           84.71       16.45       -59.98      
C           69.8        23.99       -69.98      
C           69.98       22.68       -69.9       
S           71.23       24.86       -69.56      
C           74.55       20.31       -66.95      
C           74.64       21.72       -67.08      
C           75.61       22.5        -66.4       
C           76.55       21.87       -65.69      
C           76.55       20.41       -65.61      
C           75.5        19.68       -66.15      
C           77.57       22.47       -64.75      
C           78.19       21.21       -64.19      
C           77.62       19.99       -64.7       
C           73.32       19.72       -67.56      
C           72.77       20.97       -68.25      
C           73.61       22.09       -68.01      
C           79.21       21.16       -63.27      
C           79.7        19.94       -62.91      
C           79.12       18.78       -63.49      
C           78.13       18.75       -64.41      
C           71.59       21.05       -68.81      
C           71.15       22.32       -69.23      
C           72.0        23.42       -68.96      
C           73.19       23.37       -68.39      
C           76.89       23.3        -63.55      
C           78.78       23.2        -65.44      
C           72.31       19.13       -66.45      
C           73.67       18.58       -68.64      
H           75.46       18.6        -66.02      
H           75.61       23.56       -66.55      
H           70.91       20.18       -68.95      
H           73.78       24.29       -68.18      
H           79.7        22.0        -62.92      
H           77.9        17.8        -64.95      
H           76.51       24.29       -63.93      
H           77.53       23.6        -62.71      
H           76.07929    22.7325     -63.09305   
H           79.13       22.59       -66.29      
H           79.55       23.41       -64.7       
H           78.49937    24.12105    -65.95089   
H           72.72       18.39       -69.12      
H           74.32       18.96       -69.41      
H           74.02494    17.61757    -68.27141   
H           72.64       18.19       -66.02      
H           71.33       19.11       -66.97      
H           72.23294    19.77449    -65.57433   
H           81.2        20.59       -61.52      
H           69.24       21.92       -70.17      
S           80.13       17.47       -62.96      
C           80.73       19.72       -61.97      
C           81.27       18.43       -61.98      
C           66.13       26.45       -70.57      
C           66.05       25.14       -69.95      
C           67.36       26.8        -71.02      
N           65.02       24.49       -69.37      
N           66.83       23.16       -69.15      
O           65.51       23.32       -68.93      
H           69.43       26.36       -71.17      
H           67.56       27.81       -71.41      
C           68.48       25.92       -70.83      
C           67.23       24.24       -69.76      
C           68.56       24.68       -70.22      
C           54.38       38.28       -69.68      
C           55.57       38.4        -70.31      
S           54.37       36.75       -68.77      
C           59.76       34.11       -70.69      
C           58.64       33.7        -69.87      
C           58.61       32.47       -69.23      
C           59.64       31.59       -69.45      
C           60.67       31.93       -70.35      
C           60.71       33.17       -71.02      
C           59.6        30.1        -69.22      
C           61.08       29.79       -69.47      
C           61.63       30.79       -70.36      
C           59.6        35.49       -71.31      
C           58.35       35.93       -70.6       
C           57.78       34.87       -69.77      
C           61.74       28.55       -69.33      
C           62.95       28.3        -70.05      
C           63.43       29.3        -70.93      
C           62.78       30.51       -71.13      
C           57.73       37.15       -70.71      
C           56.45       37.3        -70.12      
C           55.87       36.27       -69.43      
C           56.57       35.02       -69.14      
C           58.54       29.41       -70.09      
C           59.42       29.74       -67.72      
C           59.54       35.43       -72.85      
C           60.83       36.43       -70.91      
H           61.52       33.43       -71.69      
H           57.82       32.18       -68.49      
H           58.08       38.0        -71.31      
H           56.12       34.24       -68.58      
H           61.34       27.86       -68.59      
H           63.17       31.24       -71.86      
H           57.62       29.67       -69.76      
H           58.53       29.9        -71.14      
H           58.63303    28.33652    -70.2546    
H           58.44       29.95       -67.37      
H           59.55       28.69       -67.67      
H           60.13145    30.3064     -67.11906   
H           61.8        36.2        -71.43      
H           60.68       37.38       -71.19      
H           61.02439    36.55239    -69.84448   
H           60.55       35.16       -73.22      
H           59.31       36.41       -73.24      
H           58.75508    34.75212    -73.18537   
H           63.59       26.34       -69.34      
H           55.83       39.25       -70.86      
S           64.98       28.79       -71.52      
C           63.81       27.21       -69.95      
C           64.98       27.35       -70.56      
C           50.92       40.99       -69.79      
C           52.14       41.43       -70.29      
C           50.96       39.68       -69.45      
N           52.52       42.59       -70.83      
N           54.39       41.36       -70.68      
O           53.9        42.53       -70.93      
H           51.89       37.75       -69.2       
H           50.01       39.19       -69.19      
C           52.03       38.78       -69.44      
C           53.38       40.62       -70.18      
C           53.29       39.24       -69.69      
H           139.15      45.45       56.54       
H           49.94       41.51       -69.66      
