612

C           108.77      43.23       41.97       
C           108.49      44.51       42.33       
S           110.23      42.61       42.74       
C           112.21      47.68       46.06       
C           112.7       46.48       45.61       
C           114.05      46.14       45.9        
C           114.82      46.9        46.82       
C           114.21      48.1        47.3        
C           112.91      48.55       46.93       
C           116.3       46.85       47.21       
C           116.39      48.1        48.22       
C           115.22      48.84       48.14       
C           110.92      48.04       45.4        
C           110.61      46.73       44.6        
C           111.67      45.78       44.83       
C           117.51      48.54       48.89       
C           117.46      49.78       49.48       
C           116.22      50.44       49.43       
C           115.08      50.01       48.81       
C           109.55      46.43       43.77       
C           109.45      45.08       43.27       
C           110.51      44.19       43.5        
C           111.65      44.51       44.31       
C           117.36      47.01       46.11       
C           116.68      45.73       48.21       
C           111.17      49.26       44.41       
C           109.71      48.35       46.33       
H           112.51      49.45       47.27       
H           114.45      45.17       45.65       
H           108.67      47.06       43.8        
H           112.52      43.83       44.46       
H           118.36      47.94       49.07       
H           114.15      50.54       48.72       
H           117.54      46.01       45.7        
H           118.25      47.28       46.6        
H           117.06072   47.76915    45.38735    
H           116.48      46.0        49.24       
H           117.71      45.52       48.18       
H           116.21545   44.7593     48.03666    
H           109.59      49.43       46.42       
H           108.87      47.8        45.89       
H           109.86922   47.87993    47.30046    
H           111.5       50.16       45.0        
H           110.25      49.48       43.88       
H           111.98793   49.12855    43.70161    
H           119.49      50.29       50.27       
H           107.71      45.1        41.91       
S           116.39      52.09       50.07       
C           118.49      50.61       50.03       
C           118.07      51.81       50.44       
C           107.63      41.09       38.33       
C           108.05      40.37       39.52       
C           107.59      42.42       38.53       
N           108.07      39.07       39.75       
N           108.67      40.12       41.66       
O           108.55      38.9        41.05       
H           107.69      44.14       39.63       
H           107.39      42.95       37.64       
C           107.81      43.08       39.78       
C           108.26      41.04       40.75       
C           108.18      42.47       40.92       
C           106.45      35.6        22.62       
C           106.38      36.87       23.05       
S           106.44      34.55       24.0        
C           107.14      38.7        28.79       
C           107.33      37.27       28.6        
C           107.54      36.49       29.71       
C           107.65      37.1        30.94       
C           107.61      38.51       31.08       
C           107.4       39.34       29.96       
C           107.42      36.4        32.31       
C           107.7       37.64       33.2        
C           107.75      38.83       32.45       
C           106.64      39.39       27.52       
C           106.59      38.2        26.56       
C           106.9       37.01       27.22       
C           107.64      37.67       34.65       
C           107.68      38.9        35.32       
C           107.7       40.09       34.5        
C           107.72      40.05       33.08       
C           106.28      38.18       25.25       
C           106.41      37.03       24.48       
C           106.57      35.81       25.18       
C           106.82      35.79       26.57       
C           108.33      35.26       32.64       
C           105.96      35.97       32.64       
C           107.55      40.59       27.05       
C           105.17      39.83       27.72       
H           107.33      40.43       30.08       
H           107.48      35.45       29.7        
H           106.1       39.09       24.74       
H           106.93      34.81       27.04       
H           107.4       36.85       35.3        
H           107.68      40.98       32.51       
H           108.09      34.47       31.93       
H           108.15      35.08       33.67       
H           109.38285   35.51784    32.5254     
H           105.33      36.85       32.67       
H           105.88      35.57       33.59       
H           105.61463   35.27206    31.87731    
H           104.84      40.39       26.87       
H           104.65      38.9        27.74       
H           104.98131   40.55575    28.51107    
H           107.13      40.9        26.11       
H           107.51      41.43       27.76       
H           108.60379   40.33179    26.94532    
H           107.25      38.48       37.43       
H           106.49      37.75       22.43       
S           107.86      41.49       35.57       
C           107.51      39.21       36.68       
C           107.59      40.55       37.0        
C           107.22      33.96       18.66       
C           106.76      35.34       18.8        
C           107.41      33.32       19.84       
N           106.74      36.37       17.96       
N           106.11      37.2        19.88       
O           106.3       37.45       18.57       
H           107.36      33.29       21.98       
H           107.76      32.31       19.87       
C           107.18      33.89       21.1        
C           106.51      35.91       20.06       
C           106.6       35.11       21.28       
C           118.61      29.2        7.57        
C           118.07      28.32       8.38        
S           118.02      30.86       7.83        
C           113.52      29.75       12.36       
C           113.88      30.81       11.4        
C           113.25      32.08       11.43       
C           112.23      32.28       12.32       
C           111.8       31.28       13.2        
C           112.51      30.01       13.33       
C           111.28      33.45       12.39       
C           110.38      32.97       13.52       
C           110.79      31.74       14.08       
C           114.06      28.4        11.9        
C           115.11      28.99       10.87       
C           114.99      30.35       10.53       
C           109.43      33.78       14.09       
C           109.0       33.39       15.4        
C           109.46      32.19       15.9        
C           110.27      31.26       15.27       
C           116.01      28.23       10.11       
C           116.96      28.85       9.2         
C           116.81      30.24       8.94        
C           115.8       30.93       9.57        
C           110.4       33.59       11.16       
C           111.89      34.83       12.66       
C           112.91      27.69       11.18       
C           114.89      27.49       12.91       
H           112.17      29.3        14.04       
H           113.53      32.89       10.73       
H           116.08      27.11       10.1        
H           115.6       32.0        9.3         
H           109.03      34.69       13.67       
H           110.62      30.28       15.63       
H           109.72      34.37       11.44       
H           110.89      33.97       10.32       
H           109.84394   32.68382    10.91973    
H           112.68      35.01       11.83       
H           111.23      35.66       12.68       
H           112.38306   34.8668     13.63141    
H           115.32      26.56       12.46       
H           115.77      28.13       13.24       
H           114.24746   27.10721    13.70292    
H           112.15      27.44       11.94       
H           112.49      28.45       10.5        
H           113.21763   26.80208    10.62767    
H           107.38      34.97       15.94       
H           118.38      27.23       8.41        
S           108.89      32.03       17.53       
C           107.97      33.98       16.19       
C           107.83      33.43       17.45       
C           121.12      28.69       4.01        
C           121.39      29.65       5.02        
C           120.08      27.82       4.36        
N           122.4       30.51       5.04        
N           121.12      30.79       6.88        
O           122.16      31.32       6.11        
H           118.34      27.45       5.4         
H           119.69      27.09       3.64        
C           119.21      28.03       5.47        
C           120.63      29.75       6.18        
C           119.49      28.93       6.47        
C           129.74      23.44       -9.27       
C           128.72      22.7        -8.72       
S           130.03      24.9        -8.36       
C           125.41      24.81       -4.0        
C           126.46      25.67       -4.46       
C           126.73      26.96       -3.94       
C           126.07      27.33       -2.8        
C           124.99      26.57       -2.33       
C           124.57      25.33       -2.96       
C           126.43      28.39       -1.74       
C           125.19      28.37       -0.83       
C           124.37      27.28       -1.24       
C           125.43      23.48       -4.78       
C           126.65      23.7        -5.66       
C           127.17      24.98       -5.49       
C           124.92      28.99       0.36        
C           123.71      28.67       1.05        
C           122.88      27.64       0.56        
C           123.17      26.96       -0.59       
C           127.06      22.86       -6.69       
C           128.14      23.31       -7.51       
C           128.66      24.54       -7.3        
C           128.27      25.35       -6.21       
C           126.48      29.89       -2.27       
C           127.66      28.05       -0.89       
C           124.14      23.24       -5.52       
C           125.78      22.21       -3.92       
H           123.7       24.7        -2.56       
H           127.55      27.55       -4.27       
H           126.65      21.86       -6.76       
H           128.7       26.32       -6.1        
H           125.46      29.85       0.71        
H           122.44      26.24       -0.95       
H           127.1       30.58       -1.6        
H           127.04      29.88       -3.17       
H           125.50252   30.31096    -2.50545    
H           128.58      28.56       -1.24       
H           127.48      28.29       0.13        
H           127.89557   26.98636    -0.85431    
H           124.89      21.72       -3.44       
H           126.28      21.49       -4.56       
H           126.60342   22.45997    -3.25097    
H           123.39      23.18       -4.85       
H           124.21      22.28       -6.0        
H           123.82369   24.04133    -6.18777    
H           123.57      30.0        2.71        
H           128.42      21.79       -9.17       
S           121.5       27.37       1.57        
C           123.05      29.24       2.18        
C           121.91      28.61       2.74        
C           131.6       23.18       -13.32      
C           131.21      22.01       -12.56      
C           131.59      24.28       -12.55      
N           131.17      20.77       -12.87      
N           130.3       20.81       -10.84      
O           130.74      19.97       -11.87      
H           131.28      25.35       -10.6       
H           131.95      25.23       -12.91      
C           131.07      24.35       -11.17      
C           130.56      22.02       -11.26      
C           130.44      23.26       -10.56      
C           133.69      27.24       -29.19      
C           132.98      27.99       -28.22      
S           134.51      25.91       -28.35      
C           133.34      26.71       -22.25      
C           133.85      25.76       -23.12      
C           134.21      24.49       -22.74      
C           134.05      24.17       -21.36      
C           133.64      25.19       -20.46      
C           133.32      26.48       -20.87      
C           133.98      22.81       -20.65      
C           133.84      23.2        -19.19      
C           133.46      24.56       -19.17      
C           132.54      27.77       -23.06      
C           133.02      27.48       -24.46      
C           133.72      26.25       -24.45      
C           133.64      22.47       -18.05      
C           133.03      22.99       -16.91      
C           132.68      24.37       -16.92      
C           132.85      25.15       -18.03      
C           132.69      28.03       -25.64      
C           133.14      27.5        -26.87      
C           133.84      26.29       -26.81      
C           134.14      25.65       -25.63      
C           135.29      22.01       -20.99      
C           132.75      22.02       -21.28      
C           133.06      29.08       -22.54      
C           130.95      27.65       -22.93      
H           132.98      27.32       -20.16      
H           134.42      23.68       -23.42      
H           132.18      28.96       -25.71      
H           134.74      24.75       -25.6       
H           133.94      21.48       -18.06      
H           132.33      26.13       -18.06      
H           135.5       21.97       -22.04      
H           135.19      20.99       -20.58      
H           136.1988    22.43555    -20.56445   
H           132.95      21.82       -22.33      
H           132.52      21.07       -20.86      
H           131.79654   22.54333    -21.35169   
H           130.58      28.51       -22.3       
H           130.4       27.91       -23.85      
H           130.61729   26.68883    -22.53814   
H           132.88      29.06       -21.49      
H           134.14      29.12       -22.86      
H           132.54031   29.95527    -22.92977   
H           132.9       21.41       -15.27      
H           132.51      28.94       -28.47      
S           132.1       24.92       -15.35      
C           132.74      22.43       -15.55      
C           132.18      23.3        -14.64      
C           134.81      27.89       -33.46      
C           134.13      28.88       -32.7       
C           135.03      26.76       -32.7       
N           133.66      30.12       -33.06      
N           132.93      29.72       -30.92      
O           133.07      30.64       -31.95      
H           134.91      25.61       -30.87      
H           135.59      25.96       -33.13      
C           134.65      26.53       -31.36      
C           133.61      28.67       -31.33      
C           133.92      27.43       -30.62      
C           146.58      29.25       -44.99      
C           146.23      28.16       -44.24      
S           145.7       30.73       -44.52      
C           141.87      27.97       -40.14      
C           142.05      29.27       -40.65      
C           141.32      30.42       -40.24      
C           140.35      30.11       -39.28      
C           140.03      28.76       -38.89      
C           140.8       27.7        -39.28      
C           139.49      31.13       -38.52      
C           138.6       30.1        -37.76      
C           138.93      28.74       -37.96      
C           142.85      26.92       -40.71      
C           143.66      27.81       -41.62      
C           143.23      29.21       -41.57      
C           137.61      30.33       -36.81      
C           136.96      29.24       -36.13      
C           137.2       27.89       -36.55      
C           138.25      27.59       -37.42      
C           144.7       27.46       -42.43      
C           145.26      28.43       -43.26      
C           144.77      29.81       -43.33      
C           143.74      30.21       -42.44      
C           138.85      32.03       -39.61      
C           140.35      31.95       -37.51      
C           142.06      25.84       -41.47      
C           143.84      26.37       -39.72      
H           140.63      26.73       -38.94      
H           141.47      31.39       -40.56      
H           145.12      26.49       -42.41      
H           143.32      31.21       -42.56      
H           137.4       31.37       -36.48      
H           138.48      26.55       -37.72      
H           139.5       32.86       -39.68      
H           138.85      31.59       -40.59      
H           137.83748   32.35121    -39.3656    
H           140.88      32.78       -37.93      
H           139.66      32.25       -36.85      
H           141.09174   31.27436    -37.08405   
H           144.05      25.27       -39.9       
H           144.8       26.8        -39.86      
H           143.61258   26.37       -38.65399   
H           142.62      24.92       -41.71      
H           141.31      25.59       -40.77      
H           141.54183   26.2269     -42.34744   
H           135.8       30.23       -34.55      
H           146.7       27.17       -44.41      
S           136.17      26.72       -35.66      
C           136.07      29.3        -35.07      
C           135.55      28.09       -34.71      
C           149.43      29.24       -48.45      
C           148.95      28.03       -47.9       
C           149.19      30.23       -47.62      
N           149.11      26.84       -48.36      
N           147.71      26.77       -46.62      
O           148.43      26.0        -47.52      
H           148.02      31.23       -46.16      
H           149.59      31.17       -47.86      
C           148.21      30.25       -46.59      
C           148.08      28.0        -46.7       
C           147.55      29.21       -46.05      
C           157.77      34.06       -61.95      
C           157.96      34.69       -60.77      
S           156.71      32.67       -61.82      
C           155.32      32.57       -55.66      
C           155.08      31.82       -56.82      
C           154.22      30.81       -56.87      
C           153.61      30.47       -55.66      
C           153.88      31.17       -54.54      
C           154.71      32.23       -54.46      
C           152.43      29.49       -55.55      
C           152.2       29.53       -54.03      
C           152.99      30.56       -53.5       
C           156.27      33.75       -55.95      
C           156.43      33.58       -57.42      
C           155.81      32.46       -57.95      
C           151.22      28.92       -53.29      
C           151.06      29.32       -51.88      
C           151.85      30.44       -51.42      
C           152.87      31.02       -52.16      
C           157.16      34.39       -58.29      
C           157.16      34.1        -59.71      
C           156.48      32.97       -60.13      
C           155.86      32.07       -59.26      
C           153.07      28.15       -56.0       
C           151.23      29.92       -56.46      
C           157.65      33.73       -55.22      
C           155.56      35.03       -55.53      
H           154.71      32.98       -53.6       
H           153.87      30.34       -57.81      
H           157.74      35.3        -57.97      
H           155.4       31.15       -59.56      
H           150.62      28.07       -53.76      
H           153.54      31.81       -51.79      
H           152.99      28.26       -57.08      
H           154.12      28.04       -55.82      
H           152.52488   27.24845    -55.72045   
H           151.53      29.93       -57.53      
H           150.44      29.23       -56.47      
H           150.78281   30.88036    -56.20342   
H           155.57      35.06       -54.44      
H           156.2       35.84       -55.66      
H           154.54465   35.14904    -55.90813   
H           157.4       33.47       -54.2       
H           158.14      34.7        -55.32      
H           158.27305   32.88293    -55.50702   
H           149.79      27.77       -51.06      
H           158.58      35.57       -60.64      
S           151.36      30.72       -49.77      
C           150.23      28.73       -50.89      
C           150.22      29.42       -49.7       
C           159.26      34.84       -65.94      
C           159.99      35.21       -64.82      
C           158.05      34.39       -65.78      
N           161.14      35.74       -64.84      
N           160.56      35.44       -62.69      
O           161.5       35.88       -63.54      
H           156.72      33.55       -64.3       
H           157.36      34.24       -66.57      
C           157.6       34.13       -64.42      
C           159.51      35.08       -63.45      
C           158.33      34.33       -63.25      
C           164.28      33.55       -81.58      
C           163.02      33.13       -81.2       
S           165.39      33.78       -80.28      
C           161.4       32.73       -75.39      
C           162.78      33.06       -75.56      
C           163.63      33.46       -74.54      
C           163.17      33.52       -73.19      
C           161.76      33.23       -73.02      
C           160.93      32.77       -74.04      
C           163.81      34.14       -71.9       
C           162.57      34.14       -71.06      
C           161.41      33.5        -71.65      
C           160.72      32.28       -76.63      
C           161.88      32.64       -77.63      
C           163.05      33.09       -76.98      
C           162.47      34.77       -69.79      
C           161.25      34.71       -69.06      
C           160.14      34.01       -69.63      
C           160.25      33.47       -70.92      
C           161.79      32.61       -79.03      
C           162.9       32.94       -79.8       
C           164.07      33.37       -79.13      
C           164.17      33.38       -77.75      
C           164.23      35.63       -72.14      
C           165.03      33.29       -71.43      
C           159.4       32.94       -76.87      
C           160.52      30.73       -76.62      
H           159.86      32.54       -73.86      
H           164.63      33.82       -74.79      
H           160.84      32.28       -79.55      
H           165.09      33.73       -77.3       
H           163.38      35.38       -69.41      
H           159.38      33.05       -71.36      
H           164.76      36.02       -71.29      
H           165.1       35.77       -72.82      
H           163.35052   36.2045     -72.4308    
H           165.91      33.25       -72.17      
H           165.41      33.87       -70.56      
H           164.83469   32.22276    -71.32537   
H           159.83      30.51       -77.5       
H           161.38      30.05       -76.77      
H           159.99836   30.3564     -75.73886   
H           158.66      32.63       -76.16      
H           158.96      32.72       -77.82      
H           159.46514   34.02564    -76.79762   
H           161.75      35.54       -67.12      
H           162.22      33.02       -81.89      
S           158.82      33.95       -68.54      
C           161.01      35.06       -67.67      
C           159.76      34.7        -67.25      
C           165.78      34.92       -85.55      
C           164.41      34.46       -85.33      
C           166.52      34.93       -84.38      
N           163.46      34.42       -86.2       
N           162.64      33.71       -84.22      
O           162.41      33.9        -85.54      
H           166.75      34.65       -82.35      
H           167.55      35.29       -84.32      
C           165.99      34.44       -83.1       
C           163.93      34.01       -84.06      
C           164.73      33.95       -82.86      
C           174.47      39.31       -99.05      
C           175.01      38.74       -97.93      
S           172.7       39.48       -98.85      
C           171.93      37.86       -92.7       
C           171.13      38.24       -93.78      
C           169.71      38.24       -93.62      
C           169.18      37.88       -92.46      
C           169.98      37.39       -91.43      
C           171.35      37.47       -91.48      
C           167.75      38.05       -92.0       
C           167.82      37.12       -90.86      
C           169.12      36.89       -90.38      
C           173.44      37.92       -92.96      
C           173.37      38.11       -94.51      
C           172.08      38.51       -94.93      
C           166.73      36.72       -90.07      
C           166.93      36.26       -88.79      
C           168.26      36.06       -88.31      
C           169.38      36.35       -89.1       
C           174.44      38.2        -95.4       
C           174.16      38.68       -96.8       
C           172.81      38.99       -97.17      
C           171.78      38.88       -96.2       
C           166.63      37.56       -93.01      
C           167.57      39.49       -91.48      
C           174.0       36.53       -92.61      
C           174.17      39.06       -92.22      
H           171.93      37.17       -90.67      
H           169.04      38.43       -94.47      
H           175.44      37.85       -95.15      
H           170.73      39.08       -96.35      
H           165.72      36.84       -90.52      
H           170.41      36.27       -88.68      
H           166.7       38.23       -93.84      
H           165.64      37.6        -92.58      
H           166.76017   36.5114     -93.27757   
H           168.1       39.61       -90.61      
H           166.51      39.57       -91.16      
H           167.85889   40.3003     -92.14938   
H           175.19      38.69       -92.2       
H           174.23      40.0        -92.68      
H           173.75688   39.32653    -91.24717   
H           173.78      36.42       -91.55      
H           175.07      36.56       -92.75      
H           173.62717   35.71399    -93.22904   
H           164.78      36.11       -87.94      
H           176.02      38.56       -97.88      
S           168.17      35.2        -86.84      
C           165.86      35.95       -87.84      
C           166.41      35.39       -86.75      
C           176.28      40.73       -102.83     
C           177.13      40.37       -101.69     
C           174.91      40.63       -102.57     
N           178.47      40.29       -101.71     
N           177.56      39.46       -99.78      
O           178.71      39.91       -100.43     
H           173.26      40.2        -101.25     
H           174.11      40.85       -103.34     
C           174.34      40.28       -101.33     
C           176.55      39.86       -100.51     
C           175.13      39.77       -100.28     
C           178.94      49.68       -116.72     
C           177.74      49.1        -116.42     
S           180.2       49.05       -115.64     
C           177.04      45.45       -111.49     
C           178.36      45.79       -111.81     
C           179.42      45.4        -110.87     
C           179.04      44.79       -109.67     
C           177.74      44.48       -109.38     
C           176.71      44.89       -110.24     
C           179.98      44.41       -108.53     
C           178.98      43.64       -107.6      
C           177.64      43.77       -108.11     
C           176.16      45.73       -112.67     
C           177.11      46.56       -113.55     
C           178.42      46.62       -113.01     
C           179.16      42.95       -106.34     
C           178.02      42.42       -105.64     
C           176.77      42.52       -106.27     
C           176.58      43.24       -107.45     
C           176.81      47.26       -114.7      
C           177.83      48.13       -115.3      
C           179.09      48.15       -114.67     
C           179.38      47.43       -113.51     
C           180.72      45.61       -107.83     
C           181.01      43.39       -109.03     
C           175.08      46.76       -112.23     
C           175.5       44.49       -113.31     
H           175.7       44.56       -110.06     
H           180.46      45.7        -110.96     
H           175.82      47.23       -115.18     
H           180.3       47.55       -113.0      
H           180.11      42.9        -105.87     
H           175.62      43.46       -107.85     
H           181.6       45.18       -107.35     
H           181.0       46.29       -108.64     
H           180.11204   46.15282    -107.10624  
H           181.69      43.8        -109.8      
H           181.56      43.02       -108.12     
H           180.48791   42.57938    -109.53835  
H           174.55      44.23       -112.93     
H           175.32      44.68       -114.36     
H           176.10901   43.58698    -113.268    
H           174.35      46.31       -111.54     
H           174.57      47.19       -113.14     
H           175.4572    47.63045    -111.69322  
H           179.0       41.48       -103.82     
H           176.92      49.23       -117.08     
S           175.59      41.81       -105.14     
C           178.03      41.65       -104.39     
C           176.81      41.24       -104.06     
C           180.34      52.87       -119.54     
C           179.01      52.27       -119.59     
C           181.15      52.26       -118.65     
N           178.03      52.67       -120.33     
N           177.28      50.98       -119.09     
O           176.99      51.9        -120.07     
H           181.37      50.89       -116.98     
H           182.13      52.63       -118.44     
C           180.67      51.23       -117.74     
C           178.55      51.22       -118.78     
C           179.37      50.64       -117.71     
H           118.43      52.18       51.35       
H           180.58      53.89       -119.81     
