612

C           150.34      0.95        2.02        
C           151.42      1.51        2.6         
S           149.14      0.29        3.14        
C           151.99      2.24        8.51        
C           150.84      1.52        8.14        
C           150.11      0.89        9.14        
C           150.55      0.95        10.43       
C           151.62      1.78        10.79       
C           152.28      2.54        9.84        
C           150.14      0.06        11.63       
C           151.13      0.6         12.68       
C           152.0       1.58        12.19       
C           152.87      2.51        7.31        
C           151.94      2.08        6.15        
C           150.79      1.46        6.7         
C           151.3       0.18        13.97       
C           152.34      0.73        14.83       
C           153.26      1.65        14.28       
C           153.05      2.18        13.0        
C           152.23      2.04        4.86        
C           151.28      1.51        3.99        
C           150.08      0.88        4.47        
C           149.89      0.83        5.86        
C           150.39      -1.38       11.25       
C           148.68      0.4         11.95       
C           154.2       1.69        7.38        
C           153.11      4.0         7.17        
H           153.17      3.05        10.07       
H           149.38      0.08        8.83        
H           153.04      2.59        4.43        
H           149.09      0.32        6.34        
H           150.49      -0.48       14.37       
H           153.76      2.9         12.61       
H           149.69      -1.72       10.57       
H           150.31      -1.96       12.2        
H           151.40216   -1.53402    10.87594    
H           148.58      1.43        11.8        
H           148.58      0.13        13.0        
H           147.91353   -0.0684     11.33257    
H           153.96      4.3         7.78        
H           153.45      4.08        6.13        
H           152.24986   4.6451      7.34919     
H           154.75      1.9         8.23        
H           154.89      2.17        6.63        
H           154.10057   0.61051     7.26637     
H           152.06      -0.16       16.88       
H           152.19      2.12        2.15        
S           154.48      2.16        15.53       
C           152.55      0.55        16.23       
C           153.57      1.28        16.7        
C           149.51      0.53        -2.32       
C           150.83      0.34        -1.71       
C           148.59      0.85        -1.37       
N           152.02      -0.03       -2.31       
N           152.38      0.27        -0.08       
O           152.95      -0.07       -1.25       
H           148.09      1.43        0.58        
H           147.56      1.03        -1.61       
C           148.9       1.08        0.02        
C           151.11      0.56        -0.33       
C           150.12      0.81        0.64        
C           142.95      -1.81       -17.54      
C           142.26      -1.47       -16.42      
S           144.59      -2.32       -17.13      
C           144.83      -0.67       -11.03      
C           145.67      -1.29       -11.97      
C           147.1       -1.31       -11.64      
C           147.58      -0.82       -10.41      
C           146.65      -0.29       -9.49       
C           145.34      -0.17       -9.77       
C           148.96      -1.02       -9.77       
C           148.76      -0.15       -8.49       
C           147.37      -0.0        -8.25       
C           143.38      -0.71       -11.46      
C           143.53      -1.12       -12.91      
C           144.86      -1.59       -13.1       
C           149.66      -0.11       -7.45       
C           149.2       0.15        -6.11       
C           147.86      0.37        -5.99       
C           146.94      0.36        -7.01       
C           142.7       -1.06       -14.0       
C           143.11      -1.43       -15.25      
C           144.44      -1.88       -15.5       
C           145.33      -2.0        -14.37      
C           150.07      -0.36       -10.63      
C           149.26      -2.53       -9.44       
C           142.83      0.76        -11.17      
C           142.54      -1.87       -10.79      
H           144.68      0.24        -9.01       
H           147.78      -1.63       -12.46      
H           141.67      -0.68       -13.91      
H           146.4       -2.29       -14.52      
H           150.75      -0.24       -7.7        
H           145.87      0.48        -6.83       
H           149.97      -0.8        -11.64      
H           151.04      -0.57       -10.21      
H           150.0022    0.72484     -10.71136   
H           148.39      -2.83       -8.93       
H           150.12      -2.63       -8.81       
H           149.4564    -3.10516    -10.34483   
H           141.53      -1.83       -11.18      
H           142.92      -2.85       -11.14      
H           142.41267   -1.89122    -9.70767    
H           141.76      0.82        -11.53      
H           142.74      0.9         -10.07      
H           143.42766   1.56648     -11.59484   
H           150.97      0.01        -4.76       
H           141.2       -1.23       -16.34      
S           147.48      0.6         -4.3        
C           149.91      0.22        -4.88       
C           149.17      0.35        -3.75       
C           141.99      -1.78       -21.85      
C           141.1       -1.28       -20.88      
C           143.15      -2.32       -21.25      
N           139.85      -0.84       -21.02      
N           140.37      -0.8        -18.85      
O           139.38      -0.69       -19.8       
H           144.41      -2.74       -19.64      
H           143.95      -2.76       -21.88      
C           143.46      -2.32       -19.88      
C           141.33      -1.35       -19.48      
C           142.57      -1.78       -18.9       
C           137.16      -2.1        -37.42      
C           136.59      -1.21       -36.58      
S           138.65      -2.74       -36.89      
C           139.11      -0.18       -31.15      
C           139.85      -1.07       -31.93      
C           140.97      -1.77       -31.42      
C           141.23      -1.78       -30.09      
C           140.34      -0.97       -29.27      
C           139.37      -0.08       -29.76      
C           142.2       -2.69       -29.29      
C           141.88      -2.18       -27.94      
C           140.83      -1.24       -27.9       
C           138.08      0.61        -31.98      
C           138.11      -0.18       -33.29      
C           139.2       -1.12       -33.25      
C           142.33      -2.71       -26.8       
C           141.96      -2.1        -25.6       
C           141.01      -1.06       -25.62      
C           140.36      -0.69       -26.77      
C           137.14      -0.21       -34.24      
C           137.37      -1.0        -35.42      
C           138.59      -1.75       -35.48      
C           139.47      -1.9        -34.41      
C           143.68      -2.3        -29.6       
C           141.94      -4.21       -29.56      
C           138.63      2.04        -32.18      
C           136.72      0.63        -31.21      
H           138.8       0.57        -29.19      
H           141.53      -2.4        -32.08      
H           136.21      0.36        -34.14      
H           140.29      -2.55       -34.51      
H           143.08      -3.53       -26.7       
H           139.61      0.06        -26.75      
H           144.21      -3.19       -29.24      
H           143.98      -2.3        -30.67      
H           143.99128   -1.35132    -29.16272   
H           142.03      -4.35       -30.65      
H           142.75      -4.78       -29.08      
H           141.04705   -4.55017    -29.03557   
H           136.63      1.34        -30.43      
H           135.86      0.81        -31.89      
H           136.4095    -0.29444    -30.72308   
H           138.02      2.74        -31.77      
H           139.5       2.15        -31.62      
H           138.75951   2.32781     -33.22331   
H           143.15      -3.15       -24.03      
H           135.6       -0.73       -36.75      
S           140.76      -0.43       -24.0       
C           142.39      -2.45       -24.28      
C           141.75      -1.7        -23.26      
C           135.64      -4.3        -41.05      
C           134.85      -3.36       -40.34      
C           136.9       -4.34       -40.49      
N           133.57      -3.04       -40.5       
N           134.3       -2.0        -38.58      
O           133.21      -2.3        -39.4       
H           138.33      -4.05       -39.03      
H           137.59      -5.15       -40.78      
C           137.4       -3.67       -39.38      
C           135.3       -2.66       -39.16      
C           136.66      -2.75       -38.61      
C           136.94      -9.18       -56.2       
C           137.1       -10.22      -55.36      
S           135.74      -8.07       -55.62      
C           135.73      -9.6        -49.37      
C           135.05      -8.71       -50.21      
C           134.26      -7.64       -49.74      
C           134.06      -7.58       -48.38      
C           134.83      -8.45       -47.5       
C           135.64      -9.44       -48.0       
C           133.13      -6.66       -47.66      
C           133.55      -6.88       -46.24      
C           134.74      -7.68       -46.21      
C           136.68      -10.54      -50.18      
C           136.31      -10.16      -51.62      
C           135.48      -9.06       -51.58      
C           133.23      -6.13       -45.14      
C           134.15      -5.92       -44.04      
C           135.29      -6.78       -44.01      
C           135.6       -7.66       -45.08      
C           136.87      -10.64      -52.79      
C           136.61      -9.93       -54.03      
C           135.83      -8.77       -54.02      
C           135.27      -8.35       -52.78      
C           131.63      -7.05       -47.8       
C           133.29      -5.14       -48.05      
C           136.43      -12.02      -49.85      
C           138.23      -10.19      -49.97      
H           136.35      -9.95       -47.35      
H           133.76      -6.97       -50.47      
H           137.58      -11.5       -52.8       
H           134.68      -7.43       -52.64      
H           132.33      -5.53       -45.08      
H           136.53      -8.27       -45.06      
H           131.06      -6.5        -46.99      
H           131.15      -6.72       -48.7       
H           131.46699   -8.12017    -47.92757   
H           132.7       -4.98       -48.98      
H           132.77      -4.59       -47.24      
H           134.31186   -4.76315    -48.09348   
H           138.64      -10.79      -49.18      
H           138.84      -10.5       -50.94      
H           138.45971   -9.15629    -49.71157   
H           136.82      -12.31      -48.85      
H           136.9       -12.64      -50.68      
H           135.37058   -12.27597   -49.86422   
H           133.35      -4.27       -42.75      
H           137.75      -11.1       -55.56      
S           136.41      -6.33       -42.72      
C           134.17      -5.01       -42.94      
C           135.32      -5.1        -42.19      
C           138.7       -8.76       -60.22      
C           138.62      -9.98       -59.52      
C           138.22      -7.71       -59.48      
N           138.78      -11.21      -59.98      
N           138.02      -11.5       -57.89      
O           138.46      -12.11      -59.04      
H           137.17      -6.92       -57.84      
H           138.13      -6.72       -59.93      
C           137.57      -7.89       -58.23      
C           138.06      -10.17      -58.29      
C           137.46      -9.08       -57.56      
C           136.8       -10.79      -75.7       
C           137.68      -11.59      -75.02      
S           136.97      -9.16       -75.05      
C           140.03      -10.47      -69.61      
C           139.55      -9.32       -70.36      
C           139.42      -8.03       -69.75      
C           139.5       -7.99       -68.36      
C           139.83      -9.16       -67.63      
C           140.21      -10.32      -68.23      
C           139.21      -6.73       -67.45      
C           139.38      -7.38       -66.12      
C           139.76      -8.77       -66.24      
C           140.32      -11.62      -70.57      
C           139.55      -11.08      -71.8       
C           139.15      -9.69       -71.66      
C           139.12      -6.91       -64.85      
C           139.29      -7.7        -63.71      
C           139.77      -8.96       -63.99      
C           140.1       -9.5        -65.18      
C           139.14      -11.75      -72.93      
C           138.36      -11.1       -73.87      
C           138.01      -9.74       -73.76      
C           138.46      -9.0        -72.67      
C           137.72      -6.45       -67.7       
C           140.14      -5.49       -67.65      
C           139.74      -13.0       -70.08      
C           141.79      -11.75      -70.97      
H           140.52      -11.12      -67.6       
H           139.34      -7.19       -70.34      
H           139.26      -12.86      -73.03      
H           138.04      -8.01       -72.6       
H           138.6       -5.95       -64.75      
H           140.45      -10.54      -65.27      
H           137.45      -6.26       -68.73      
H           137.49      -5.54       -67.14      
H           137.11249   -7.27236    -67.32216   
H           139.85      -5.0        -68.65      
H           140.01      -4.79       -66.83      
H           141.2029    -5.71377    -67.74091   
H           141.98      -12.82      -71.19      
H           141.95      -11.14      -71.88      
H           142.46328   -11.51834   -70.14469   
H           139.88      -13.77      -70.86      
H           140.26      -13.35      -69.17      
H           138.70927   -12.92234   -69.73407   
H           138.37      -6.75       -62.0       
H           137.63      -12.65      -75.26      
S           140.03      -9.85       -62.48      
C           138.95      -7.59       -62.35      
C           139.11      -8.65       -61.62      
C           134.32      -11.24      -79.36      
C           135.13      -12.31      -78.81      
C           134.57      -10.09      -78.69      
N           135.07      -13.62      -79.23      
N           136.51      -13.42      -77.46      
O           136.03      -14.24      -78.48      
H           135.33      -8.98       -77.01      
H           134.0       -9.18       -78.84      
C           135.34      -9.96       -77.51      
C           135.95      -12.23      -77.59      
C           136.09      -11.02      -76.93      
C           125.04      -9.8        -93.16      
C           125.64      -8.73       -92.52      
S           125.71      -11.33      -92.52      
C           129.2       -9.3        -87.59      
C           128.97      -10.53      -88.3       
C           129.29      -11.77      -87.7       
C           130.01      -11.76      -86.54      
C           130.44      -10.57      -85.96      
C           130.01      -9.32       -86.5       
C           130.27      -12.92      -85.57      
C           131.2       -12.28      -84.57      
C           131.16      -10.89      -84.7       
C           128.4       -8.16       -88.29      
C           128.11      -8.8        -89.62      
C           128.26      -10.22      -89.56      
C           131.75      -12.9       -83.46      
C           132.36      -12.11      -82.5       
C           132.41      -10.76      -82.7       
C           131.89      -10.07      -83.82      
C           127.33      -8.21       -90.64      
C           126.74      -9.06       -91.6       
C           126.9       -10.46      -91.54      
C           127.79      -11.04      -90.57      
C           130.97      -14.08      -86.27      
C           128.98      -13.44      -84.86      
C           129.39      -6.99       -88.35      
C           127.06      -7.73       -87.61      
H           130.18      -8.38       -85.99      
H           129.08      -12.74      -88.16      
H           127.13      -7.22       -90.64      
H           127.86      -12.13      -90.48      
H           131.77      -14.0       -83.42      
H           132.0       -9.06       -84.02      
H           131.04      -15.01      -85.69      
H           130.27      -14.39      -87.08      
H           131.93051   -13.79255   -86.69767   
H           128.32      -14.08      -85.42      
H           129.33      -13.98      -84.0       
H           128.34229   -12.59449   -84.60205   
H           126.58      -6.91       -88.05      
H           126.35      -8.53       -87.57      
H           127.16605   -7.41893    -86.57073   
H           129.77      -6.8        -87.35      
H           130.3       -7.36       -88.86      
H           129.07582   -6.11728    -88.9225    
H           133.21      -13.51      -80.97      
H           125.39      -7.64       -92.69      
S           133.09      -9.9        -81.28      
C           133.02      -12.47      -81.24      
C           133.4       -11.41      -80.47      
C           121.39      -10.04      -95.73      
C           122.14      -8.83       -95.52      
C           121.95      -11.15      -95.13      
N           121.87      -7.58       -95.94      
N           123.7       -7.52       -94.66      
O           122.9       -6.81       -95.5       
H           123.54      -12.01      -93.99      
H           121.58      -12.22      -95.3       
C           123.21      -11.1       -94.41      
C           123.31      -8.78       -94.65      
C           123.97      -9.92       -94.11      
C           107.72      -12.64      -104.55     
C           108.38      -13.75      -104.07     
S           108.5       -11.14      -104.12     
C           113.07      -12.68      -99.97      
C           112.45      -11.57      -100.54     
C           112.79      -10.27      -100.19     
C           113.85      -10.11      -99.32      
C           114.55      -11.26      -98.8       
C           114.07      -12.47      -99.06      
C           114.84      -8.9        -99.27      
C           115.94      -9.49       -98.39      
C           115.74      -10.9       -98.13      
C           112.51      -13.97      -100.61     
C           111.38      -13.52      -101.57     
C           111.44      -12.09      -101.53     
C           117.11      -8.82       -97.99      
C           118.12      -9.64       -97.45      
C           117.91      -11.0       -97.2       
C           116.72      -11.63      -97.52      
C           110.4       -14.17      -102.36     
C           109.49      -13.4       -103.17     
C           109.57      -11.99      -103.09     
C           110.54      -11.35      -102.28     
C           114.39      -7.68       -98.51      
C           115.52      -8.65       -100.68     
C           112.0       -14.72      -99.43      
C           113.46      -14.76      -101.45     
H           114.64      -13.29      -98.65      
H           112.27      -9.37       -100.58     
H           110.36      -15.22      -102.42     
H           110.62      -10.28      -102.27     
H           117.32      -7.78       -98.22      
H           116.56      -12.67      -97.31      
H           115.05      -6.84       -98.75      
H           113.58      -7.27       -98.97      
H           114.29546   -7.78805    -97.4295    
H           114.81      -8.12       -101.32     
H           116.42      -8.04       -100.55     
H           115.9206    -9.54099    -101.16348  
H           113.65      -15.74      -100.97     
H           113.12      -14.95      -102.52     
H           114.42672   -14.28375   -101.61349  
H           112.88      -14.99      -98.86      
H           111.58      -15.68      -99.67      
H           111.22882   -14.13811   -98.92523   
H           119.73      -8.09       -97.13      
H           108.11      -14.79      -104.33     
S           119.32      -11.72      -96.39      
C           119.41      -9.14       -97.06      
C           120.14      -10.16      -96.45      
C           105.23      -12.39      -108.23     
C           105.24      -11.28      -107.28     
C           105.85      -13.47      -107.73     
N           104.86      -10.0       -107.38     
N           105.93      -10.2       -105.47     
O           105.42      -9.31       -106.34     
H           106.89      -14.58      -106.25     
H           105.81      -14.38      -108.27     
C           106.53      -13.63      -106.47     
C           105.99      -11.41      -106.06     
C           106.68      -12.6       -105.62     
C           91.81       -14.13      -118.06     
C           92.62       -15.18      -117.72     
S           92.41       -12.6       -117.49     
C           97.97       -14.48      -114.82     
C           97.19       -13.26      -114.91     
C           97.65       -12.11      -114.29     
C           98.81       -12.15      -113.59     
C           99.56       -13.33      -113.49     
C           99.12       -14.51      -114.08     
C           99.46       -10.94      -112.97     
C           100.79      -11.63      -112.4      
C           100.7       -13.0       -112.62     
C           97.32       -15.57      -115.62     
C           96.0        -14.93      -116.0      
C           96.02       -13.58      -115.71     
C           101.76      -11.04      -111.66     
C           102.69      -11.88      -111.0      
C           102.65      -13.23      -111.21     
C           101.71      -13.84      -112.04     
C           94.92       -15.55      -116.63     
C           93.86       -14.8       -117.05     
C           93.81       -13.41      -116.73     
C           94.96       -12.71      -116.13     
C           98.56       -10.31      -111.9      
C           99.84       -9.85       -114.01     
C           97.04       -16.74      -114.68     
C           98.01       -15.91      -116.91     
H           99.63       -15.44      -113.97     
H           97.1        -11.23      -114.34     
H           94.96       -16.64      -116.8      
H           94.91       -11.65      -115.94     
H           101.76      -9.98       -111.38     
H           101.84      -14.86      -112.2      
H           97.62       -10.1       -112.35     
H           98.36       -11.11      -111.15     
H           98.90459    -9.44852    -111.32798  
H           99.05       -9.16       -114.35     
H           100.54      -9.2        -113.45     
H           100.24662   -10.29942   -114.91597  
H           98.62       -16.85      -116.78     
H           97.22       -16.27      -117.61     
H           98.63748    -15.10012   -117.28211  
H           98.0        -17.25      -114.38     
H           96.49       -17.5       -115.28     
H           96.46564    -16.46      -113.79693  
H           103.54      -10.54      -109.62     
H           92.45       -16.17      -118.14     
S           103.85      -14.01      -110.1      
C           103.6       -11.5       -110.01     
C           104.34      -12.46      -109.43     
C           88.68       -13.94      -121.15     
C           88.53       -13.35      -119.91     
C           89.78       -14.72      -121.21     
N           87.49       -12.72      -119.36     
N           89.18       -12.53      -117.87     
O           87.86       -12.32      -118.08     
H           91.64       -15.44      -120.38     
H           89.99       -15.26      -122.13     
C           90.82       -14.77      -120.23     
C           89.55       -13.37      -118.85     
C           90.7        -14.14      -119.0      
C           81.46       -18.64      -134.51     
C           82.67       -17.96      -134.65     
S           80.48       -18.03      -133.14     
C           84.57       -14.27      -130.12     
C           83.31       -14.9       -129.94     
C           82.63       -14.88      -128.7      
C           83.41       -14.53      -127.59     
C           84.67       -14.0       -127.76     
C           85.23       -13.71      -128.97     
C           82.94       -14.63      -126.11     
C           84.18       -14.08      -125.47     
C           85.23       -13.93      -126.4      
C           84.92       -14.29      -131.63     
C           83.96       -15.39      -132.16     
C           82.91       -15.55      -131.22     
C           84.43       -14.08      -124.06     
C           85.78       -13.89      -123.56     
C           86.78       -13.71      -124.58     
C           86.5        -13.7       -125.99     
C           84.0        -16.08      -133.38     
C           82.88       -16.96      -133.65     
C           81.83       -16.97      -132.68     
C           81.76       -16.25      -131.5      
C           82.77       -16.1       -125.64     
C           81.75       -13.82      -125.57     
C           86.35       -14.71      -131.91     
C           84.65       -12.89      -132.36     
H           86.15       -13.2       -129.01     
H           81.65       -15.3       -128.58     
H           84.83       -15.93      -134.07     
H           80.9        -16.43      -130.82     
H           83.58       -14.18      -123.36     
H           87.3        -13.62      -126.74     
H           81.73       -16.44      -125.88     
H           82.75       -16.08      -124.51     
H           83.52995    -16.79603   -125.99512  
H           82.02       -12.75      -125.82     
H           81.65       -13.78      -124.44     
H           80.8605     -13.90608   -126.19408  
H           85.13       -12.94      -133.26     
H           83.64       -12.81      -132.63     
H           85.05924    -12.00095   -131.8802   
H           86.99       -13.9       -131.6      
H           86.57       -14.73      -133.04     
H           86.64423    -15.64292   -131.42919  
H           85.69       -13.9       -121.36     
H           83.36       -18.2       -135.43     
S           88.36       -13.74      -123.92     
C           86.34       -13.91      -122.23     
C           87.71       -13.96      -122.24     
C           79.98       -22.17      -136.76     
C           81.38       -21.84      -136.54     
C           79.23       -21.21      -136.08     
N           82.41       -22.59      -136.95     
N           83.26       -20.79      -135.95     
O           83.53       -21.96      -136.59     
H           78.96       -19.49      -134.92     
H           78.18       -21.49      -136.05     
C           79.7        -20.09      -135.34     
C           81.89       -20.69      -135.82     
C           81.03       -19.82      -135.16     
C           73.04       -36.63      -142.14     
C           72.37       -35.56      -141.7      
S           74.77       -36.36      -142.03     
C           74.9        -30.18      -140.08     
C           75.82       -31.29      -140.27     
C           77.12       -31.18      -139.99     
C           77.59       -29.93      -139.49     
C           76.72       -28.89      -139.35     
C           75.36       -29.02      -139.76     
C           78.99       -29.57      -138.91     
C           78.76       -28.11      -138.65     
C           77.44       -27.67      -138.92     
C           73.45       -30.68      -140.34     
C           73.64       -32.16      -140.59     
C           75.04       -32.4       -140.78     
C           79.69       -27.25      -138.14     
C           79.3        -25.88      -137.94     
C           78.0        -25.43      -138.33     
C           77.03       -26.37      -138.68     
C           72.71       -33.12      -140.86     
C           73.15       -34.38      -141.32     
C           74.49       -34.7       -141.43     
C           75.43       -33.69      -141.03     
C           79.98       -29.87      -140.05     
C           79.22       -30.5       -137.69     
C           73.01       -30.01      -141.69     
C           72.46       -30.3       -139.24     
H           74.65       -28.22      -139.51     
H           77.73       -32.08      -140.02     
H           71.65       -32.87      -140.76     
H           76.47       -33.97      -141.09     
H           80.72       -27.47      -137.92     
H           75.94       -26.09      -138.64     
H           79.93       -30.95      -140.38     
H           79.84       -29.24      -140.86     
H           81.01088    -29.67202   -139.75644  
H           79.4        -31.5       -137.99     
H           80.07       -30.13      -137.15     
H           78.36595    -30.58401   -137.01796  
H           72.5        -29.19      -139.01     
H           71.46       -30.64      -139.38     
H           72.66872    -30.71048   -138.25205  
H           72.81       -28.92      -141.52     
H           72.1        -30.49      -142.08     
H           73.79148    -30.04757   -142.44893  
H           81.02       -25.06      -137.03     
H           71.28       -35.58      -141.61     
S           77.9        -23.71      -137.86     
C           80.07       -24.79      -137.32     
C           79.52       -23.52      -137.24     
C           71.95       -40.65      -143.59     
C           71.02       -39.75      -142.9      
C           73.15       -40.06      -143.64     
N           69.77       -39.97      -142.63     
N           70.34       -37.95      -141.67     
O           69.3        -38.83      -141.99     
H           74.52       -38.55      -143.47     
H           73.91       -40.58      -144.2      
C           73.49       -38.74      -143.21     
C           71.4        -38.51      -142.24     
C           72.65       -37.96      -142.51     
H           153.64      1.58        17.77       
H           71.71       -41.57      -144.09     
