612

C           135.25      20.79       3.75        
C           135.85      21.77       4.46        
S           135.08      21.39       2.13        
C           139.37      26.04       1.93        
C           138.34      25.55       1.06        
C           138.25      25.96       -0.27       
C           139.09      26.93       -0.77       
C           140.08      27.37       0.1         
C           140.23      26.99       1.43        
C           139.24      27.65       -2.16       
C           140.36      28.62       -1.86       
C           140.95      28.29       -0.62       
C           139.17      25.62       3.38        
C           137.98      24.66       3.16        
C           137.67      24.53       1.8         
C           141.09      29.36       -2.75       
C           142.4       29.85       -2.37       
C           142.78      29.67       -1.05       
C           142.09      28.85       -0.13       
C           137.34      23.88       4.14        
C           136.48      22.83       3.74        
C           136.28      22.66       2.38        
C           136.8       23.57       1.35        
C           137.9       28.42       -2.32       
C           139.64      26.76       -3.43       
C           138.76      26.81       4.36        
C           140.32      24.84       3.97        
H           140.95      27.46       2.07        
H           137.38      25.59       -0.86       
H           137.53      24.08       5.16        
H           136.44      23.54       0.37        
H           140.68      29.54       -3.76       
H           142.38      28.74       0.93        
H           137.05      27.78       -2.49       
H           137.91      29.01       -3.2        
H           137.75422   29.07256    -1.45918    
H           140.62      26.46       -3.35       
H           139.45      27.26       -4.36       
H           139.04804   25.85797    -3.58504    
H           141.08      25.49       4.46        
H           139.95      24.25       4.82        
H           140.79206   24.10649    3.31638     
H           139.54      27.62       4.5         
H           138.51      26.43       5.31        
H           137.848     27.28484    3.99822     
H           143.26      30.71       -4.26       
H           136.03      21.68       5.53        
S           144.28      30.57       -0.77       
C           143.37      30.47       -3.23       
C           144.44      30.93       -2.48       
C           134.01      16.74       4.88        
C           134.61      17.58       5.84        
C           133.8       17.35       3.68        
N           134.97      17.44       7.12        
N           135.54      19.52       6.48        
O           135.4       18.65       7.56        
H           133.95      19.1        2.34        
H           133.38      16.78       2.94        
C           134.22      18.7        3.35        
C           134.99      18.92       5.44        
C           134.8       19.49       4.18        
C           128.67      1.2         5.9         
C           129.04      1.79        4.7         
S           129.13      2.26        7.18        
C           131.95      7.29        4.51        
C           131.69      6.76        5.77        
C           131.97      7.54        6.94        
C           132.5       8.78        6.84        
C           132.72      9.3         5.54        
C           132.54      8.56        4.38        
C           132.77      9.84        7.82        
C           132.94      11.04       6.97        
C           132.92      10.71       5.59        
C           131.47      6.27        3.44        
C           131.06      5.1         4.3         
C           131.12      5.44        5.62        
C           133.17      12.34       7.33        
C           133.36      13.29       6.35        
C           133.25      12.89       5.0         
C           133.05      11.57       4.63        
C           130.45      3.86        3.87        
C           129.83      3.02        4.85        
C           129.85      3.48        6.16        
C           130.49      4.68        6.57        
C           134.06      9.66        8.66        
C           131.49      10.09       8.65        
C           132.67      5.89        2.53        
C           130.35      6.82        2.48        
H           132.74      8.98        3.39        
H           131.74      7.22        7.99        
H           130.37      3.61        2.83        
H           130.38      4.97        7.61        
H           133.22      12.69       8.35        
H           133.01      11.33       3.58        
H           134.03      8.79        9.38        
H           134.17      10.42       9.34        
H           134.91384   9.46126     8.01226     
H           130.73      10.05       7.82        
H           131.45      11.11       9.03        
H           131.20982   9.36004     9.40945     
H           130.83      7.11        1.6         
H           129.73      5.98        2.16        
H           129.83551   7.6316      2.99449     
H           132.35      5.09        1.9         
H           132.97      6.81        2.0         
H           133.55208   5.62607     3.11342     
H           133.76      15.21       7.33        
H           128.77      1.32        3.76        
S           133.28      14.19       3.83        
C           133.57      14.72       6.41        
C           133.65      15.29       5.19        
C           126.29      -2.39       7.11        
C           126.16      -1.81       5.78        
C           127.21      -1.78       7.88        
N           125.42      -2.17       4.78        
N           126.5       -0.3        4.2         
O           125.76      -1.35       3.78        
H           128.71      -0.35       8.14        
H           127.49      -2.16       8.86        
C           127.97      -0.65       7.48        
C           126.94      -0.66       5.38        
C           127.86      0.05        6.2         
C           119.93      -15.91      14.27       
C           120.63      -14.92      14.94       
S           119.64      -15.43      12.61       
C           122.38      -9.72       12.4        
C           121.7       -10.62      11.5        
C           121.46      -10.31      10.2        
C           121.98      -9.11       9.76        
C           122.72      -8.24       10.58       
C           122.82      -8.46       11.95       
C           121.97      -8.61       8.32        
C           122.77      -7.34       8.42        
C           123.2       -7.15       9.76        
C           122.7       -10.36      13.73       
C           121.76      -11.62      13.59       
C           121.32      -11.79      12.3        
C           123.09      -6.49       7.44        
C           123.97      -5.32       7.76        
C           124.32      -5.13       9.15        
C           123.88      -5.98       10.16       
C           121.59      -12.62      14.54       
C           121.03      -13.84      14.17       
C           120.55      -13.97      12.85       
C           120.71      -12.95      11.89       
C           120.53      -8.33       7.91        
C           122.59      -9.62       7.35        
C           122.18      -9.48       14.94       
C           124.16      -10.89      13.81       
H           123.4       -7.84       12.66       
H           120.95      -11.05      9.5         
H           121.98      -12.52      15.57       
H           120.47      -13.12      10.86       
H           122.69      -6.54       6.45        
H           124.15      -5.78       11.21       
H           120.51      -7.92       6.86        
H           120.03      -9.27       7.74        
H           119.97575   -7.72033    8.62359     
H           122.19      -10.56      7.51        
H           122.3       -9.13       6.43        
H           123.64416   -9.77059    7.58274     
H           124.28      -11.42      14.7        
H           124.37      -11.49      12.93       
H           124.93988   -10.13199   13.73711    
H           122.28      -9.89       15.9        
H           122.89      -8.66       14.97       
H           121.14977   -9.13424    14.85532    
H           124.38      -4.3        5.83        
H           120.87      -15.05      16.02       
S           125.35      -3.74       9.32        
C           124.55      -4.26       6.91        
C           125.48      -3.47       7.61        
C           119.46      -20.25      14.82       
C           118.34      -19.48      14.48       
C           120.61      -19.58      15.15       
N           117.07      -19.73      14.3        
N           117.28      -17.51      14.05       
O           116.45      -18.56      13.94       
H           121.64      -17.65      15.43       
H           121.46      -20.1       15.51       
C           120.68      -18.09      15.1        
C           118.44      -18.02      14.4        
C           119.68      -17.3       14.65       
C           118.41      -36.05      19.67       
C           119.65      -35.47      19.68       
S           117.05      -34.99      19.32       
C           120.12      -29.71      17.82       
C           118.84      -30.27      17.74       
C           117.77      -29.53      17.23       
C           117.93      -28.19      16.89       
C           119.19      -27.57      16.91       
C           120.32      -28.39      17.31       
C           116.81      -27.18      16.37       
C           117.69      -25.98      16.16       
C           119.05      -26.16      16.52       
C           121.13      -30.78      18.2        
C           120.18      -31.88      18.55       
C           118.88      -31.67      18.14       
C           117.33      -24.75      15.64       
C           118.28      -23.7       15.51       
C           119.54      -23.94      15.99       
C           119.99      -25.19      16.45       
C           120.55      -33.1       19.08       
C           119.51      -34.08      19.19       
C           118.17      -33.76      18.89       
C           117.79      -32.57      18.29       
C           115.75      -26.98      17.49       
C           116.04      -27.56      15.11       
C           121.94      -30.23      19.36       
C           122.0       -31.3       17.07       
H           121.32      -27.93      17.37       
H           116.79      -29.93      17.19       
H           121.55      -33.43      19.3        
H           116.77      -32.26      18.1        
H           116.37      -24.64      15.19       
H           121.02      -25.2       16.82       
H           114.98      -26.48      17.08       
H           115.29      -27.92      17.88       
H           116.04533   -26.24871   18.24239    
H           115.21      -28.21      15.36       
H           115.55      -26.7       14.81       
H           116.69442   -27.95834   14.33466    
H           122.84      -30.7       16.8        
H           122.33      -32.32      17.33       
H           121.46019   -31.41918   16.13059    
H           122.32      -29.32      19.09       
H           122.78      -30.88      19.61       
H           121.37741   -30.19439   20.29291    
H           117.16      -22.0       14.75       
H           120.56      -35.91      20.04       
S           120.62      -22.62      15.63       
C           118.1       -22.41      15.02       
C           119.25      -21.66      15.09       
C           117.37      -40.26      19.58       
C           118.72      -39.79      19.49       
C           116.54      -39.34      19.94       
N           119.86      -40.54      19.37       
N           120.42      -38.41      19.64       
O           120.9       -39.69      19.33       
H           116.06      -37.29      19.85       
H           115.48      -39.53      20.03       
C           116.89      -37.97      19.85       
C           119.12      -38.45      19.65       
C           118.16      -37.48      19.77       
C           111.25      -53.56      11.98       
C           110.6       -52.36      12.08       
S           112.83      -53.57      12.8        
C           112.51      -47.84      15.75       
C           113.4       -48.89      15.45       
C           114.62      -48.91      16.18       
C           114.97      -47.79      16.93       
C           114.1       -46.75      17.1        
C           112.77      -46.76      16.58       
C           116.28      -47.53      17.66       
C           116.11      -46.05      17.91       
C           114.78      -45.58      17.68       
C           111.29      -48.04      14.87       
C           111.54      -49.39      14.21       
C           112.79      -49.92      14.65       
C           117.03      -45.23      18.54       
C           116.7       -43.91      18.71       
C           115.34      -43.48      18.49       
C           114.35      -44.3       17.94       
C           110.76      -50.15      13.42       
C           111.23      -51.43      12.99       
C           112.55      -51.94      13.38       
C           113.35      -51.11      14.2        
C           117.42      -47.84      16.73       
C           116.44      -48.25      19.02       
C           111.11      -46.91      13.86       
C           110.05      -48.05      15.71       
H           112.02      -45.96      16.87       
H           115.21      -49.76      16.29       
H           109.74      -49.86      13.27       
H           114.33      -51.44      14.6        
H           118.05      -45.51      18.63       
H           113.34      -44.01      17.78       
H           117.24      -48.78      16.19       
H           118.37      -47.98      17.38       
H           117.58653   -46.99346   16.06387    
H           116.85      -49.29      18.87       
H           117.01      -47.63      19.72       
H           115.47055   -48.48377   19.46003    
H           110.03      -47.1       16.28       
H           109.13      -48.09      15.07       
H           110.05745   -48.8916    16.40264    
H           110.14      -46.73      13.54       
H           111.43      -46.05      14.41       
H           111.87369   -46.91701   13.0823     
H           118.63      -42.94      19.3        
H           109.56      -52.19      11.65       
S           115.27      -41.81      18.88       
C           117.57      -42.81      19.08       
C           116.95      -41.63      19.3        
C           110.2       -57.22      9.7         
C           111.01      -57.28      10.89       
C           109.84      -55.97      9.29        
N           111.43      -58.32      11.63       
N           111.7       -56.52      12.83       
O           112.0       -57.83      12.79       
H           110.0       -53.8       9.6         
H           109.22      -55.8       8.45        
C           110.22      -54.79      10.05       
C           111.2       -56.12      11.66       
C           110.81      -54.79      11.22       
C           106.18      -71.44      2.29        
C           106.56      -70.31      1.66        
S           106.27      -71.15      4.01        
C           107.18      -64.95      4.43        
C           106.88      -66.02      5.25        
C           106.84      -65.87      6.66        
C           107.26      -64.68      7.21        
C           107.45      -63.58      6.38        
C           107.33      -63.66      4.98        
C           107.64      -64.33      8.67        
C           108.12      -62.84      8.45        
C           107.88      -62.39      7.14        
C           106.92      -65.34      2.92        
C           106.96      -66.87      3.07        
C           106.74      -67.14      4.44        
C           108.69      -62.07      9.44        
C           109.06      -60.79      8.96        
C           108.79      -60.29      7.67        
C           108.22      -61.13      6.72        
C           106.92      -67.87      2.11        
C           106.57      -69.11      2.48        
C           106.46      -69.41      3.82        
C           106.55      -68.47      4.84        
C           108.71      -65.37      9.11        
C           106.38      -64.43      9.62        
C           107.92      -64.74      1.9         
C           105.48      -64.95      2.4         
H           107.5       -62.74      4.32        
H           106.73      -66.73      7.31        
H           107.12      -67.66      1.03        
H           106.46      -68.8       5.83        
H           108.65      -62.33      10.53       
H           108.09      -60.83      5.66        
H           108.35      -66.38      9.04        
H           109.51      -65.31      8.32        
H           109.1751    -65.21258   10.08314    
H           106.32      -65.35      10.21       
H           106.65      -63.51      10.22       
H           105.43295   -64.26984   9.10469     
H           105.61      -64.24      1.65        
H           105.05      -65.86      2.03        
H           104.83282   -64.49979   3.1527      
H           107.48      -64.74      0.85        
H           108.1       -63.73      2.26        
H           108.88325   -65.24995   1.88583     
H           109.83      -59.95      10.87       
H           106.61      -70.23      0.6         
S           109.15      -58.58      7.59        
C           109.53      -59.74      9.84        
C           109.66      -58.51      9.24        
C           105.23      -75.45      0.98        
C           105.83      -74.53      0.14        
C           104.88      -74.98      2.2         
N           106.21      -74.7       -1.16       
N           106.92      -72.7       -0.37       
O           106.95      -73.58      -1.46       
H           104.76      -73.32      3.69        
H           104.35      -75.56      2.89        
C           105.21      -73.68      2.7         
C           106.19      -73.29      0.6         
C           105.91      -72.83      1.91        
C           95.55       -87.66      -4.4        
C           95.22       -86.63      -3.5        
S           97.31       -87.69      -4.8        
C           99.54       -83.08      -1.03       
C           99.92       -83.76      -2.26       
C           101.12      -83.44      -2.83       
C           101.85      -82.37      -2.31       
C           101.48      -81.8       -1.09       
C           100.36      -82.15      -0.38       
C           103.13      -81.68      -2.82       
C           103.29      -80.58      -1.83       
C           102.29      -80.66      -0.88       
C           98.07       -83.41      -0.69       
C           97.76       -84.49      -1.74       
C           98.85       -84.72      -2.63       
C           104.24      -79.63      -1.79       
C           104.27      -78.71      -0.72       
C           103.12      -78.69      0.15        
C           102.08      -79.62      0.03        
C           96.53       -85.08      -1.95       
C           96.42       -86.01      -3.03       
C           97.67       -86.45      -3.63       
C           98.9        -85.71      -3.59       
C           102.95      -81.22      -4.26       
C           104.29      -82.63      -2.85       
C           97.13       -82.14      -0.99       
C           97.83       -83.87      0.79        
H           100.03      -81.66      0.49        
H           101.6       -83.98      -3.61       
H           95.63       -84.79      -1.4        
H           99.75       -85.9       -4.3        
H           105.04      -79.58      -2.54       
H           101.26      -79.61      0.71        
H           103.95      -80.91      -4.65       
H           102.65      -82.02      -4.95       
H           102.33599   -80.32041   -4.30284    
H           104.32      -83.02      -3.86       
H           105.15      -82.03      -2.68       
H           104.21688   -83.44163   -2.12611    
H           97.59       -82.93      1.3         
H           96.92       -84.5       0.81        
H           98.65556    -84.41088   1.2526      
H           97.21       -81.51      -0.17       
H           96.08       -82.42      -0.92       
H           97.26768    -81.59653   -1.92477    
H           105.99      -77.29      -1.14       
H           94.22       -86.46      -3.08       
S           103.28      -77.47      1.36        
C           105.11      -77.54      -0.53       
C           104.76      -76.79      0.6         
C           92.83       -90.9       -5.71       
C           92.69       -90.29      -4.39       
C           93.86       -90.42      -6.46       
N           91.74       -90.47      -3.47       
N           93.24       -88.83      -2.83       
O           92.19       -89.65      -2.47       
H           95.58       -89.19      -6.64       
H           94.03       -90.8       -7.51       
C           94.77       -89.4       -6.0        
C           93.61       -89.2       -3.99       
C           94.68       -88.78      -4.86       
C           81.22       -99.0       -14.16      
C           82.47       -98.83      -14.71      
S           81.07       -98.06      -12.72      
C           87.07       -96.22      -11.6       
C           85.75       -96.13      -11.08      
C           85.5        -95.6       -9.79       
C           86.52       -95.12      -9.05       
C           87.83       -95.19      -9.6        
C           88.13       -95.76      -10.87      
C           86.47       -94.49      -7.64       
C           87.94       -94.17      -7.53       
C           88.66       -94.42      -8.7        
C           87.06       -96.71      -13.06      
C           85.58       -97.25      -13.07      
C           84.83       -96.83      -11.97      
C           88.59       -93.36      -6.62       
C           89.86       -92.93      -6.79       
C           90.57       -93.29      -7.88       
C           90.02       -94.05      -8.88       
C           84.89       -98.02      -14.01      
C           83.49       -98.26      -13.86      
C           82.8        -97.79      -12.73      
C           83.48       -97.09      -11.76      
C           85.98       -95.56      -6.65       
C           85.58       -93.17      -7.6        
C           88.16       -97.84      -13.24      
C           87.26       -95.55      -14.08      
H           89.13       -95.8       -11.3       
H           84.56       -95.69      -9.29       
H           85.4        -98.32      -14.95      
H           83.0        -96.65      -10.89      
H           88.02       -93.05      -5.73       
H           90.62       -94.49      -9.72       
H           85.56       -94.97      -5.78       
H           85.22       -96.34      -7.06       
H           86.82291    -96.17813   -6.34093    
H           84.5        -93.41      -7.63       
H           85.71       -92.74      -6.59       
H           85.77812    -92.4483    -8.39246    
H           88.01       -94.92      -13.52      
H           87.7        -95.83      -15.0       
H           86.33028    -94.99077   -14.18486   
H           89.14       -97.59      -12.82      
H           88.16       -97.99      -14.39      
H           87.81468    -98.79844   -12.85239   
H           90.35       -91.94      -4.88       
H           82.7        -99.33      -15.67      
S           92.26       -92.69      -7.79       
C           90.67       -92.23      -5.82       
C           91.91       -91.9       -6.28       
C           77.48       -100.63     -15.91      
C           78.73       -100.68     -16.6       
C           77.54       -100.05     -14.69      
N           78.99       -101.29     -17.74      
N           80.9        -100.42     -16.94      
O           80.35       -101.14     -17.99      
H           78.64       -98.95      -13.24      
H           76.59       -99.88      -14.15      
C           78.8        -99.53      -14.19      
C           79.98       -100.19     -16.03      
C           80.03       -99.64      -14.7       
C           62.34       -97.62      -21.28      
C           62.53       -97.89      -19.93      
S           63.51       -98.35      -22.32      
C           67.8        -100.58     -18.31      
C           67.76       -100.2      -19.66      
C           68.88       -100.25     -20.53      
C           70.11       -100.62     -19.94      
C           70.17       -100.91     -18.52      
C           68.99       -100.99     -17.72      
C           71.52       -100.46     -20.5       
C           72.31       -100.66     -19.26      
C           71.59       -100.99     -18.11      
C           66.63       -100.18     -17.51      
C           65.75       -99.59      -18.65      
C           66.45       -99.65      -19.88      
C           73.67       -100.56     -19.27      
C           74.37       -100.75     -18.09      
C           73.61       -101.12     -16.92      
C           72.24       -101.23     -16.92      
C           64.49       -98.95      -18.62      
C           63.8        -98.56      -19.79      
C           64.55       -98.77      -20.97      
C           65.85       -99.27      -21.04      
C           71.72       -99.03      -21.05      
C           71.92       -101.49     -21.54      
C           66.91       -99.07      -16.43      
C           65.77       -101.25     -16.87      
H           69.02       -101.15     -16.61      
H           68.72       -100.12     -21.62      
H           64.15       -98.69      -17.62      
H           66.29       -99.39      -22.03      
H           74.18       -100.3      -20.19      
H           71.68       -101.51     -16.03      
H           71.04       -98.86      -21.87      
H           72.74       -98.92      -21.48      
H           71.61958    -98.26253   -20.28253   
H           71.64       -102.55     -21.26      
H           72.95       -101.34     -21.78      
H           71.48866    -101.34151  -22.52995   
H           64.86       -100.79     -16.43      
H           65.45       -101.94     -17.68      
H           66.27598    -101.87713  -16.13597   
H           67.4        -99.4       -15.49      
H           65.99       -98.71      -16.02      
H           67.51611    -98.24997   -16.81506   
H           76.46       -100.19     -18.5       
H           61.77       -97.77      -19.14      
S           74.74       -101.27     -15.54      
C           75.82       -100.63     -17.77      
C           76.18       -100.76     -16.46      
C           58.92       -95.8       -23.39      
C           58.84       -96.12      -22.0       
C           60.02       -96.24      -24.02      
N           57.89       -95.88      -21.12      
N           59.65       -96.6       -20.02      
O           58.37       -96.24      -19.91      
H           62.0        -97.05      -23.88      
H           60.2        -95.96      -25.03      
C           61.13       -96.81      -23.29      
C           59.94       -96.7       -21.32      
C           61.2        -97.09      -21.94      
C           47.89       -86.53      -31.68      
C           49.14       -86.91      -32.19      
S           47.85       -86.81      -30.02      
C           53.21       -90.11      -29.34      
C           52.16       -89.67      -28.54      
C           52.01       -90.05      -27.17      
C           52.97       -90.81      -26.49      
C           54.03       -91.31      -27.33      
C           54.2        -90.93      -28.72      
C           52.89       -91.56      -25.22      
C           54.23       -92.28      -25.29      
C           54.87       -92.18      -26.53      
C           53.2        -89.59      -30.82      
C           51.77       -88.93      -30.71      
C           51.28       -88.9       -29.4       
C           54.83       -93.04      -24.32      
C           56.01       -93.72      -24.61      
C           56.69       -93.57      -25.84      
C           56.12       -92.77      -26.8       
C           51.13       -88.22      -31.72      
C           50.02       -87.56      -31.33      
C           49.39       -87.64      -30.09      
C           50.0        -88.37      -29.07      
C           51.62       -92.47      -25.24      
C           52.75       -90.49      -24.08      
C           53.25       -90.75      -31.8       
C           54.25       -88.55      -31.22      
H           55.03       -91.17      -29.4       
H           51.21       -89.73      -26.55      
H           51.49       -88.23      -32.73      
H           49.56       -88.41      -28.07      
H           54.35       -93.12      -23.34      
H           56.57       -92.71      -27.8       
H           50.79       -92.0       -24.77      
H           51.31       -92.65      -26.27      
H           51.74922    -93.42478   -24.7303    
H           52.04       -89.75      -24.27      
H           52.48       -91.02      -23.1       
H           53.69012    -89.95799   -23.93424   
H           54.27       -88.34      -32.27      
H           54.06       -87.52      -30.8       
H           55.2505     -88.83691   -30.89631   
H           54.22       -91.35      -31.71      
H           53.42       -90.37      -32.85      
H           52.41967    -91.45258   -31.72903   
H           56.34       -94.85      -22.74      
H           49.34       -87.06      -33.24      
S           58.06       -94.61      -25.85      
C           56.7        -94.58      -23.71      
C           57.88       -95.05      -24.14      
C           44.22       -84.63      -33.48      
C           45.02       -85.56      -34.14      
C           44.72       -84.43      -32.25      
N           44.81       -86.07      -35.32      
N           46.82       -86.92      -34.61      
O           45.87       -86.83      -35.67      
H           46.08       -84.68      -30.7       
H           44.24       -83.71      -31.64      
C           45.88       -85.01      -31.73      
C           46.31       -86.16      -33.65      
C           46.68       -85.92      -32.3       
H           145.1       31.7        -2.84       
H           43.54       -83.93      -33.94      
