612

C           98.1        33.82       12.41       
C           99.26       34.52       12.73       
S           97.15       34.78       11.28       
C           101.55      38.75       9.2         
C           100.19      38.6        9.01        
C           99.49       39.27       7.98        
C           100.14      40.02       7.1         
C           101.43      40.32       7.32        
C           102.11      39.78       8.44        
C           99.61       40.7        5.86        
C           100.81      41.43       5.32        
C           101.92      41.19       6.21        
C           102.11      37.76       10.24       
C           100.85      37.29       10.89       
C           99.79       37.56       10.03       
C           101.02      42.12       4.12        
C           102.32      42.57       3.83        
C           103.33      42.42       4.77        
C           103.18      41.78       5.98        
C           100.71      36.33       11.85       
C           99.51       35.7        11.98       
C           98.46       35.98       11.16       
C           98.57       37.02       10.25       
C           98.5        41.78       6.21        
C           99.08       39.76       4.72        
C           102.84      38.59       11.23       
C           102.99      36.61       9.74        
H           103.19      39.89       8.51        
H           98.45       39.07       7.87        
H           101.65      36.0        12.37       
H           97.7        37.22       9.62        
H           100.2       42.22       3.41        
H           104.0       41.6        6.66        
H           97.6        41.32       6.56        
H           98.11       42.16       5.24        
H           98.83861    42.61572    6.82238     
H           100.02      39.35       4.4         
H           98.58       40.36       3.96        
H           98.43677    38.92886    5.00909     
H           103.54      36.21       10.61       
H           102.4       35.74       9.5         
H           103.66144   36.86       8.91856     
H           103.79      39.02       10.85       
H           103.07      37.95       12.07       
H           102.25382   39.37617    11.70584    
H           102.02      43.75       1.97        
H           100.03      34.22       13.47       
S           104.82      43.14       4.16        
C           102.74      43.43       2.75        
C           104.04      43.77       2.74        
C           97.0        29.98       14.27       
C           96.43       30.35       13.01       
C           97.82       30.87       14.79       
N           95.59       29.69       12.22       
N           96.32       31.53       11.12       
O           95.52       30.43       11.06       
H           98.75       32.78       14.81       
H           98.25       30.62       15.7        
C           98.21       32.13       14.19       
C           96.83       31.54       12.34       
C           97.66       32.55       12.99       
C           101.54      15.73       20.93       
C           101.35      15.88       19.61       
S           101.17      17.23       21.73       
C           98.95       20.88       17.19       
C           99.35       20.94       18.52       
C           99.06       22.14       19.25       
C           98.54       23.25       18.63       
C           98.12       23.15       17.28       
C           98.29       21.94       16.56       
C           98.35       24.69       19.23       
C           97.75       25.38       17.96       
C           97.59       24.44       16.9        
C           99.37       19.6        16.51       
C           99.96       18.82       17.7        
C           99.86       19.63       18.9        
C           97.42       26.7        17.9        
C           96.99       27.2        16.71       
C           96.8        26.3        15.61       
C           96.95       24.91       15.78       
C           100.41      17.49       17.87       
C           100.76      17.14       19.19       
C           100.62      18.0        20.27       
C           100.15      19.26       20.19       
C           99.73       25.34       19.6        
C           97.33       24.76       20.43       
C           100.35      19.89       15.29       
C           98.14       18.87       15.96       
H           97.87       21.82       15.55       
H           99.36       22.16       20.3        
H           100.51      16.83       16.93       
H           99.87       19.96       21.01       
H           97.75       27.37       18.67       
H           96.83       24.26       14.95       
H           100.23      24.78       20.27       
H           99.51       26.34       19.94       
H           100.36012   25.4414     18.71639    
H           96.34       24.26       20.05       
H           97.1        25.8        20.67       
H           97.69767    24.2252     21.30573    
H           97.81       19.41       15.04       
H           98.37       17.89       15.51       
H           97.26041    18.8557     16.6036     
H           99.98       20.02       14.24       
H           101.04      20.7        15.52       
H           101.02836   19.0508     15.13615    
H           97.04       29.32       16.93       
H           101.48      15.05       18.91       
S           96.39       27.18       14.17       
C           96.79       28.55       16.3        
C           96.68       28.75       14.97       
C           103.33      12.1        22.64       
C           102.5       12.93       23.47       
C           103.61      12.64       21.41       
N           101.98      12.81       24.71       
N           101.22      14.76       23.76       
O           101.24      13.93       24.83       
H           103.32      14.15       19.87       
H           104.27      12.12       20.72       
C           103.03      13.8        20.88       
C           101.97      14.16       22.88       
C           102.12      14.59       21.54       
C           108.5       -3.81       23.28       
C           108.83      -2.93       22.3        
S           107.57      -2.96       24.48       
C           107.31      3.12        22.41       
C           106.85      2.38        23.55       
C           106.1       2.96        24.54       
C           105.7       4.3         24.36       
C           106.17      5.05        23.3        
C           106.93      4.5         22.29       
C           104.6       5.03        25.14       
C           104.66      6.4         24.56       
C           105.48      6.34        23.4        
C           108.09      2.25        21.52       
C           108.1       0.92        22.28       
C           107.44      0.99        23.51       
C           103.89      7.57        24.87       
C           103.93      8.62        23.99       
C           104.86      8.52        22.9        
C           105.57      7.36        22.53       
C           108.75      -0.31       21.84       
C           108.54      -1.5        22.6        
C           107.84      -1.36       23.81       
C           107.27      -0.16       24.25       
C           104.94      5.13        26.64       
C           103.19      4.36        24.91       
C           109.52      2.73        21.29       
C           107.22      2.23        20.2        
H           107.26      5.07        21.4        
H           105.98      2.52        25.51       
H           109.34      -0.26       20.89       
H           106.58      -0.18       25.12       
H           103.21      7.56        25.69       
H           106.22      7.29        21.66       
H           104.0       5.13        27.19       
H           105.5       4.23        26.89       
H           105.6482    5.89485     26.95869    
H           103.12      3.61        25.67       
H           102.36      5.1         25.0        
H           103.1342    3.80199     23.97533    
H           107.31      3.29        19.82       
H           107.55      1.51        19.44       
H           106.18706   1.9187      20.35565    
H           109.83      2.11        20.52       
H           109.43      3.67        20.71       
H           110.15031   2.66404     22.17683    
H           102.68      10.24       24.88       
H           109.48      -3.24       21.5        
S           104.9       10.01       21.98       
C           103.33      9.89        24.05       
C           103.78      10.72       23.07       
C           109.2       -8.21       23.94       
C           110.26      -7.4        23.46       
C           108.1       -7.51       24.27       
N           111.5       -7.74       23.06       
N           111.22      -5.5        22.78       
O           111.99      -6.58       22.63       
H           107.0       -5.7        24.54       
H           107.23      -7.97       24.68       
C           107.91      -6.09       24.07       
C           110.05      -5.96       23.19       
C           108.81      -5.23       23.5        
C           110.12      -22.39      32.25       
C           111.29      -21.61      32.13       
S           108.77      -21.89      31.31       
C           111.14      -16.84      28.35       
C           109.92      -17.47      28.66       
C           108.7       -17.02      28.07       
C           108.7       -15.83      27.34       
C           109.94      -15.14      27.19       
C           111.15      -15.65      27.59       
C           107.55      -15.06      26.72       
C           108.29      -13.79      26.26       
C           109.65      -13.88      26.5        
C           112.32      -17.41      29.18       
C           111.54      -18.57      29.92       
C           110.23      -18.7       29.38       
C           107.76      -12.77      25.48       
C           108.62      -11.7       25.15       
C           110.01      -11.79      25.45       
C           110.54      -12.84      26.16       
C           111.89      -19.55      30.83       
C           111.07      -20.58      31.2        
C           109.75      -20.58      30.69       
C           109.27      -19.64      29.75       
C           106.55      -14.85      27.88       
C           106.86      -15.79      25.55       
C           112.98      -16.42      30.18       
C           113.45      -18.08      28.34       
H           112.16      -15.18      27.43       
H           107.8       -17.63      28.2        
H           112.94      -19.4       31.24       
H           108.22      -19.51      29.46       
H           106.68      -12.63      25.38       
H           111.61      -12.86      26.42       
H           106.02      -15.76      28.04       
H           107.22      -14.66      28.79       
H           105.84315   -14.05033   27.65866    
H           105.99      -16.32      25.9        
H           106.44      -14.99      24.95       
H           107.50545   -16.45012   24.97056    
H           114.26      -18.43      28.93       
H           112.91      -18.89      27.82       
H           113.91298   -17.45319   27.57786    
H           113.31      -15.49      29.74       
H           113.83      -16.94      30.66       
H           112.23777   -16.10897   30.91516    
H           107.21      -10.27      24.47       
H           112.13      -21.9       32.74       
S           110.83      -10.34      24.9        
C           108.29      -10.47      24.58       
C           109.35      -9.62       24.29       
C           109.53      -26.09      34.65       
C           110.67      -25.81      33.89       
C           108.62      -25.07      34.54       
N           111.71      -26.59      33.76       
N           112.16      -24.66      32.58       
O           112.62      -25.82      33.09       
H           107.92      -23.1       33.84       
H           107.81      -25.08      35.21       
C           108.76      -23.9       33.68       
C           110.91      -24.63      33.1        
C           109.91      -23.61      33.0        
C           105.09      -40.88      40.61       
C           104.19      -40.06      40.09       
S           106.68      -40.12      40.71       
C           105.58      -34.38      38.38       
C           106.59      -35.01      39.12       
C           107.86      -34.48      39.32       
C           108.16      -33.27      38.71       
C           107.16      -32.66      37.86       
C           105.85      -33.14      37.78       
C           109.48      -32.43      38.77       
C           109.17      -31.39      37.63       
C           107.77      -31.44      37.3        
C           104.29      -35.16      38.4        
C           104.72      -36.45      39.08       
C           106.15      -36.42      39.21       
C           110.02      -30.37      37.25       
C           109.45      -29.29      36.58       
C           108.06      -29.32      36.27       
C           107.21      -30.42      36.55       
C           104.03      -37.58      39.27       
C           104.66      -38.73      39.74       
C           106.05      -38.64      40.01       
C           106.81      -37.47      39.8        
C           110.66      -33.41      38.51       
C           109.71      -31.87      40.18       
C           103.74      -35.34      36.99       
C           103.23      -34.49      39.39       
H           105.08      -32.58      37.27       
H           108.65      -35.02      39.9        
H           102.99      -37.63      39.04       
H           107.87      -37.49      39.99       
H           111.08      -30.39      37.45       
H           106.2       -30.46      36.2        
H           110.54      -34.17      39.27       
H           111.67      -32.91      38.76       
H           110.58342   -33.93212   37.55626    
H           109.55      -32.63      40.95       
H           110.77      -31.58      40.24       
H           108.97992   -31.08881   40.39172    
H           102.6       -33.67      39.04       
H           102.58      -35.23      39.85       
H           103.67367   -34.06779   40.29166    
H           102.92      -36.07      37.19       
H           103.24      -34.35      36.8        
H           104.51078   -35.68176   36.29921    
H           111.17      -27.99      36.02       
H           103.15      -40.36      40.1        
S           107.7       -27.93      35.23       
C           110.09      -28.14      36.05       
C           109.28      -27.23      35.49       
C           104.68      -45.38      40.91       
C           103.59      -44.45      41.16       
C           105.88      -44.66      40.69       
N           102.29      -44.69      41.35       
N           102.48      -42.47      41.24       
O           101.63      -43.56      41.43       
H           106.97      -42.92      40.42       
H           106.84      -45.15      40.6        
C           106.0       -43.21      40.74       
C           103.71      -43.04      41.07       
C           104.98      -42.34      40.89       
C           100.45      -60.82      37.51       
C           101.5       -60.39      36.93       
S           99.84       -59.86      38.86       
C           103.69      -54.83      38.53       
C           102.64      -55.45      39.32       
C           102.0       -54.67      40.27       
C           102.45      -53.38      40.51       
C           103.59      -52.82      39.81       
C           104.17      -53.53      38.78       
C           101.91      -52.42      41.51       
C           102.87      -51.23      41.31       
C           103.84      -51.48      40.27       
C           104.19      -55.86      37.46       
C           103.22      -57.08      37.78       
C           102.28      -56.74      38.79       
C           102.85      -50.0       41.85       
C           103.75      -49.04      41.39       
C           104.68      -49.29      40.41       
C           104.73      -50.55      39.81       
C           103.05      -58.29      37.11       
C           101.94      -59.08      37.43       
C           101.12      -58.7       38.61       
C           101.26      -57.5       39.23       
C           102.13      -53.08      42.89       
C           100.37      -52.17      41.23       
C           105.68      -56.25      37.66       
C           104.04      -55.23      36.02       
H           104.98      -53.11      38.16       
H           101.24      -55.1       40.97       
H           103.72      -58.58      36.27       
H           100.6       -57.16      40.04       
H           102.19      -49.8       42.72       
H           105.4       -50.75      39.01       
H           101.68      -53.99      42.83       
H           103.2       -53.19      42.99       
H           101.76847   -52.54794   43.76995    
H           99.84       -53.12      41.09       
H           99.84       -51.68      42.07       
H           100.22792   -51.60877   40.30646    
H           104.97      -54.73      35.68       
H           103.78      -56.01      35.3        
H           103.23204   -54.50283   35.9392     
H           105.83      -56.9       36.82       
H           106.29      -55.41      37.6        
H           105.84056   -56.77358   38.60244    
H           102.91      -47.23      42.26       
H           101.89      -60.94      35.99       
S           105.44      -47.82      39.8        
C           103.69      -47.67      41.69       
C           104.56      -46.83      41.0        
C           97.93       -64.32      36.55       
C           99.31       -64.35      36.44       
C           97.44       -63.17      37.04       
N           100.04      -65.27      35.94       
N           101.46      -63.56      36.45       
O           101.3       -64.77      35.81       
H           97.7        -61.12      37.7        
H           96.39       -63.0       37.18       
C           98.21       -61.99      37.34       
C           100.14      -63.26      36.7        
C           99.61       -62.04      37.23       
C           90.04       -78.89      36.26       
C           90.72       -78.38      37.32       
S           89.92       -77.67      35.01       
C           93.33       -72.91      37.53       
C           92.46       -73.12      36.38       
C           92.33       -72.13      35.4        
C           92.92       -70.88      35.58       
C           93.81       -70.7       36.72       
C           94.02       -71.7       37.61       
C           92.87       -69.62      34.75       
C           93.79       -68.66      35.54       
C           94.54       -69.43      36.51       
C           93.45       -74.11      38.37       
C           92.46       -75.02      37.7        
C           91.93       -74.46      36.53       
C           94.19       -67.39      35.22       
C           95.33       -66.84      35.95       
C           96.04       -67.65      36.9        
C           95.64       -68.93      37.24       
C           92.03       -76.28      38.12       
C           91.24       -77.04      37.21       
C           90.86       -76.53      36.0        
C           91.11       -75.21      35.7        
C           91.42       -69.07      34.77       
C           93.39       -69.83      33.34       
C           93.02       -73.75      39.82       
C           94.91       -74.62      38.28       
H           94.7        -71.5       38.44       
H           91.66       -72.27      34.56       
H           92.41       -76.71      39.04       
H           90.79       -74.82      34.75       
H           93.75       -66.8       34.44       
H           96.18       -69.39      38.06       
H           91.38       -68.24      34.09       
H           90.78       -69.89      34.43       
H           91.06362    -68.83241   35.77232    
H           92.64       -70.38      32.72       
H           93.49       -68.87      32.79       
H           94.35737    -70.33108   33.3052     
H           95.62       -74.28      39.05       
H           94.83       -75.72      38.4        
H           95.4073     -74.53475   37.31381    
H           93.91       -73.39      40.34       
H           92.78       -74.72      40.38       
H           92.18318    -73.05382   39.87626    
H           95.7        -64.97      35.0        
H           90.87       -78.89      38.24       
S           97.39       -66.78      37.53       
C           96.01       -65.64      35.76       
C           97.1        -65.51      36.44       
C           88.85       -83.06      35.42       
C           88.73       -82.49      36.72       
C           89.39       -82.2       34.47       
N           88.22       -83.01      37.85       
N           88.72       -80.85      38.23       
O           88.32       -82.02      38.81       
H           90.12       -80.18      33.97       
H           89.57       -82.52      33.46       
C           89.76       -80.82      34.76       
C           89.06       -81.13      36.95       
C           89.56       -80.23      36.03       
C           83.28       -98.14      30.25       
C           83.53       -97.08      29.42       
S           83.62       -97.69      31.97       
C           85.86       -91.66      31.46       
C           85.79       -92.66      32.4        
C           86.18       -92.29      33.71       
C           86.67       -91.02      34.06       
C           86.86       -90.13      33.02       
C           86.56       -90.46      31.7        
C           87.15       -90.53      35.43       
C           87.35       -89.12      35.01       
C           87.28       -88.87      33.61       
C           85.27       -92.13      30.1        
C           84.87       -93.6       30.44       
C           85.21       -93.91      31.84       
C           87.55       -88.03      35.83       
C           87.87       -86.71      35.32       
C           87.85       -86.58      33.9        
C           87.54       -87.65      33.03       
C           84.32       -94.6       29.61       
C           84.01       -95.86      30.15       
C           84.24       -96.08      31.57       
C           84.92       -95.16      32.38       
C           88.46       -91.16      35.83       
C           86.05       -90.67      36.51       
C           86.37       -92.2       29.04       
C           84.11       -91.23      29.62       
H           86.68       -89.72      30.86       
H           85.98       -93.07      34.45       
H           84.28       -94.36      28.56       
H           85.11       -95.4       33.4        
H           87.46       -88.09      36.85       
H           87.54       -87.53      31.94       
H           88.5        -91.61      36.86       
H           88.55       -91.96      35.07       
H           89.33864    -90.56062   35.59161    
H           85.65       -91.67      36.64       
H           86.46       -90.39      37.51       
H           85.18185    -90.02065   36.39707    
H           84.59       -90.44      29.06       
H           83.46       -91.7       28.89       
H           83.47547    -90.93056   30.45415    
H           86.76       -91.2       28.85       
H           86.05       -92.68      28.14       
H           87.25393    -92.7774    29.31088    
H           87.96       -85.41      37.04       
H           83.3        -97.06      28.39       
S           88.31       -84.96      33.47       
C           88.16       -85.48      35.96       
C           88.51       -84.45      35.13       
C           81.93       -102.39     29.24       
C           82.27       -101.4      28.23       
C           82.3        -101.94     30.49       
N           82.35       -101.54     26.96       
N           83.0        -99.42      27.4        
O           82.64       -100.3      26.4        
H           83.0        -100.4      31.85       
H           82.11       -102.65     31.32       
C           82.69       -100.58     30.81       
C           82.63       -100.04     28.53       
C           82.81       -99.53      29.88       
C           76.58       -116.62     22.95       
C           75.73       -115.62     23.3        
S           78.15       -116.33     23.6        
C           77.27       -110.81     26.63       
C           78.35       -111.72     26.38       
C           79.69       -111.5      26.89       
C           79.85       -110.31     27.59       
C           78.79       -109.3      27.71       
C           77.54       -109.58     27.18       
C           81.14       -109.87     28.26       
C           80.82       -108.4      28.65       
C           79.5        -108.07     28.12       
C           75.93       -111.36     26.15       
C           76.38       -112.66     25.5        
C           77.79       -112.87     25.67       
C           81.62       -107.4      29.09       
C           81.2        -106.04     29.05       
C           79.94       -105.74     28.5        
C           79.06       -106.77     28.01       
C           75.63       -113.59     24.83       
C           76.29       -114.66     24.17       
C           77.67       -114.84     24.35       
C           78.38       -113.97     25.14       
C           82.35       -109.84     27.22       
C           81.52       -110.49     29.56       
C           75.28       -110.41     25.15       
C           74.98       -111.78     27.33       
H           76.76       -108.84     27.12       
H           80.55       -112.21     26.71       
H           74.59       -113.43     24.61       
H           79.42       -114.12     25.4        
H           82.64       -107.58     29.52       
H           78.13       -106.51     27.61       
H           82.53       -110.87     26.86       
H           83.24       -109.56     27.77       
H           82.12345    -109.24532  26.33505    
H           80.7        -110.27     30.22       
H           82.31       -109.9      29.93       
H           81.76045    -111.55079  29.48928    
H           74.02       -111.18     27.26       
H           74.74       -112.81     27.21       
H           75.35749    -111.71709  28.35061    
H           75.22       -109.47     25.7        
H           74.38       -110.79     24.92       
H           75.95749    -110.21854  24.31787    
H           82.98       -104.91     29.89       
H           74.71       -115.52     23.05       
S           79.78       -103.97     28.4        
C           81.99       -104.84     29.45       
C           81.45       -103.69     28.98       
C           75.47       -120.27     20.57       
C           74.54       -119.76     21.61       
C           76.72       -119.75     20.61       
N           73.29       -120.09     21.86       
N           73.94       -118.34     23.15       
O           72.96       -119.21     22.84       
H           78.15       -118.16     21.28       
H           77.49       -120.01     19.9        
C           77.18       -118.63     21.47       
C           75.04       -118.69     22.45       
C           76.32       -117.96     22.32       
C           72.2        -133.95     11.68       
C           73.17       -133.01     11.31       
S           71.55       -133.66     13.27       
C           74.74       -128.29     14.87       
C           73.67       -129.11     15.37       
C           73.04       -128.72     16.57       
C           73.49       -127.58     17.21       
C           74.56       -126.87     16.67       
C           75.22       -127.22     15.52       
C           72.81       -126.91     18.36       
C           73.63       -125.69     18.47       
C           74.68       -125.68     17.53       
C           75.13       -128.75     13.51       
C           74.28       -129.99     13.32       
C           73.4        -130.15     14.43       
C           73.56       -124.65     19.43       
C           74.36       -123.58     19.27       
C           75.31       -123.43     18.25       
C           75.54       -124.54     17.39       
C           74.23       -130.88     12.27       
C           73.34       -131.97     12.33       
C           72.45       -132.08     13.42       
C           72.46       -131.18     14.49       
C           72.84       -127.8      19.66       
C           71.31       -126.48     17.98       
C           76.56       -129.24     13.51       
C           74.94       -127.62     12.4        
H           76.12       -126.73     15.16       
H           72.29       -129.2      17.15       
H           74.84       -130.8      11.36       
H           71.87       -131.38     15.35       
H           72.86       -124.77     20.3        
H           76.26       -124.49     16.63       
H           72.17       -127.38     20.4        
H           72.37       -128.79     19.56       
H           73.79872    -127.8142   20.17842    
H           70.71       -127.37     18.01       
H           70.95       -125.74     18.72       
H           71.20934    -125.94075  17.0381     
H           75.87       -127.0      12.4        
H           74.76       -127.95     11.41       
H           74.11991    -126.91707  12.54644    
H           77.26       -128.4      13.71       
H           76.78       -129.5      12.46       
H           76.80462    -130.05772  14.18794    
H           73.77       -122.44     21.05       
H           73.69       -132.97     10.38       
S           76.14       -121.86     18.35       
C           74.37       -122.42     20.12       
C           75.18       -121.46     19.76       
C           70.59       -137.56     9.69        
C           71.25       -136.53     9.0         
C           70.44       -137.29     11.02       
N           71.62       -136.56     7.69        
N           72.58       -134.72     8.76        
O           72.39       -135.44     7.56        
H           70.52       -135.82     12.59       
H           70.1        -138.11     11.7        
C           70.85       -135.97     11.58       
C           71.74       -135.3      9.58        
C           71.57       -135.06     10.99       
H           104.39      44.61       2.19        
H           70.27       -138.51     9.31        
