612

C           97.94       40.44       40.37       
C           97.03       40.89       39.44       
S           99.53       41.18       40.19       
C           98.37       45.49       35.82       
C           99.5        45.05       36.53       
C           100.71      45.64       36.46       
C           100.89      46.73       35.56       
C           99.75       47.18       34.9        
C           98.49       46.59       35.04       
C           102.15      47.59       35.24       
C           101.52      48.6        34.3        
C           100.13      48.33       34.08       
C           97.07       44.73       36.14       
C           97.65       43.55       36.93       
C           98.97       43.92       37.31       
C           102.14      49.58       33.59       
C           101.4       50.41       32.74       
C           100.04      50.19       32.53       
C           99.46       49.1        33.08       
C           96.93       42.56       37.53       
C           97.57       41.91       38.6        
C           98.91       42.3        38.96       
C           99.62       43.31       38.35       
C           103.13      46.65       34.46       
C           102.73      48.24       36.46       
C           96.4        44.1        34.92       
C           96.03       45.53       36.97       
H           97.62       47.0        34.5        
H           101.59      45.32       37.05       
H           95.88       42.22       37.11       
H           100.66      43.57       38.61       
H           103.25      49.69       33.68       
H           98.42       48.93       32.81       
H           103.7       46.04       35.11       
H           103.89      47.25       33.98       
H           102.67084   46.02131    33.69709    
H           101.93      48.72       37.04       
H           103.39      49.1        36.31       
H           103.18099   47.52415    37.14722    
H           95.79       46.52       36.52       
H           95.18       44.83       37.12       
H           96.41621    45.8363     37.94217    
H           96.27       44.89       34.2        
H           95.41       43.68       35.2        
H           96.98808    43.34188    34.40278    
H           102.82      52.0        32.18       
H           96.0        40.51       39.37       
S           99.31       51.43       31.46       
C           101.8       51.62       32.04       
C           100.83      52.28       31.34       
C           97.36       37.87       43.79       
C           96.53       37.75       42.64       
C           98.27       38.85       43.81       
N           95.57       36.91       42.37       
N           95.87       38.2        40.49       
O           95.14       37.17       41.1        
H           99.28       40.37       42.68       
H           98.92       39.01       44.69       
C           98.44       39.6        42.64       
C           96.75       38.54       41.43       
C           97.75       39.53       41.45       
C           99.49       27.47       56.12       
C           99.11       28.78       56.47       
S           98.95       27.0        54.47       
C           97.28       32.66       52.13       
C           97.17       31.34       51.75       
C           96.7        30.98       50.54       
C           96.59       31.97       49.59       
C           96.85       33.31       49.9        
C           97.14       33.68       51.2        
C           96.43       31.73       48.1        
C           96.62       33.16       47.64       
C           96.78       34.09       48.67       
C           97.55       32.83       53.64       
C           97.74       31.36       53.99       
C           97.62       30.51       52.88       
C           96.74       33.54       46.37       
C           96.91       34.87       46.02       
C           97.06       35.83       47.07       
C           97.11       35.39       48.35       
C           98.11       30.87       55.27       
C           98.51       29.52       55.38       
C           98.39       28.71       54.19       
C           97.89       29.14       52.94       
C           95.02       31.28       47.73       
C           97.54       30.81       47.61       
C           96.23       33.47       54.26       
C           98.8        33.69       54.03       
H           97.29       34.72       51.53       
H           96.52       29.92       50.48       
H           98.19       31.58       56.11       
H           97.84       28.48       52.09       
H           96.65       32.93       45.47       
H           97.3        36.14       49.09       
H           94.84       30.44       48.4        
H           95.02       30.89       46.7        
H           94.31728    32.10339    47.85777    
H           98.45       31.08       48.22       
H           97.65       30.96       46.54       
H           97.47001    29.73222    47.75697    
H           98.83       34.72       53.58       
H           98.83       33.69       55.12       
H           99.70773    33.22524    53.64512    
H           96.58       34.2        54.94       
H           95.65       34.08       53.6        
H           95.56861    32.76594    54.76493    
H           96.83       35.07       43.8        
H           99.26       29.17       57.54       
S           97.3        37.44       46.47       
C           96.98       35.52       44.75       
C           97.28       36.83       44.84       
C           101.03      24.23       58.57       
C           100.38      25.32       59.12       
C           101.2       24.29       57.18       
N           99.95       25.58       60.33       
N           99.46       27.33       59.11       
O           99.31       26.77       60.39       
H           100.95      25.35       55.35       
H           101.74      23.53       56.66       
C           100.69      25.38       56.4        
C           100.03      26.46       58.35       
C           100.08      26.45       56.91       
C           101.44      8.35        62.39       
C           100.44      9.2         62.82       
S           102.5       9.13        61.19       
C           100.76      15.12       62.13       
C           101.71      14.37       61.45       
C           102.72      14.94       60.66       
C           102.83      16.28       60.58       
C           101.75      17.06       61.16       
C           100.81      16.47       61.99       
C           103.65      17.2        59.66       
C           103.04      18.61       59.87       
C           101.94      18.48       60.73       
C           99.63       14.23       62.68       
C           100.22      12.9        62.4        
C           101.38      13.0        61.64       
C           103.32      19.83       59.25       
C           102.42      20.88       59.43       
C           101.26      20.78       60.28       
C           101.08      19.55       61.06       
C           99.79       11.66       62.77       
C           100.59      10.56       62.4        
C           101.8       10.72       61.64       
C           102.16      11.93       61.11       
C           103.6       16.74       58.19       
C           105.15      17.26       60.1        
C           98.33       14.51       61.88       
C           99.45       14.45       64.2        
H           100.11      17.13       62.42       
H           103.4       14.29       60.07       
H           98.89       11.6        63.31       
H           103.07      12.07       60.52       
H           104.12      19.87       58.52       
H           100.17      19.4        61.53       
H           104.35      17.33       57.63       
H           103.87      15.73       58.13       
H           102.62021   16.8323     57.7214     
H           105.71      16.37       59.83       
H           105.64      17.99       59.48       
H           105.28968   17.49746    61.15461    
H           98.72       15.16       64.5        
H           99.12       13.63       64.77       
H           100.40381   14.52065    64.72283    
H           97.47       13.86       62.18       
H           98.04       15.58       62.1        
H           98.44709    14.54659    60.79693    
H           103.16      22.52       58.05       
H           99.66       8.84        63.54       
S           100.21      22.17       60.14       
C           102.44      22.19       58.8        
C           101.42      23.02       59.2        
C           102.15      3.97        62.89       
C           100.79      4.57        63.01       
C           103.14      4.9         62.66       
N           99.66       3.97        63.4        
N           99.28       6.2         63.18       
O           98.78       5.02        63.52       
H           103.77      6.99        62.5        
H           104.18      4.59        62.72       
C           102.87      6.32        62.54       
C           100.58      5.97        62.92       
C           101.62      6.89        62.55       
C           106.92      -11.44      65.76       
C           107.75      -10.69      64.93       
S           105.79      -10.45      66.59       
C           105.73      -5.2        63.06       
C           104.98      -5.9        64.03       
C           103.84      -5.4        64.64       
C           103.47      -4.13       64.28       
C           104.25      -3.37       63.34       
C           105.4       -3.89       62.78       
C           102.28      -3.33       64.77       
C           102.54      -2.0        64.06       
C           103.67      -2.0        63.23       
C           107.02      -6.04       62.73       
C           106.83      -7.21       63.73       
C           105.74      -7.01       64.58       
C           101.74      -0.89       64.09       
C           102.2       0.3         63.44       
C           103.43      0.25        62.66       
C           104.15      -0.88       62.54       
C           107.57      -8.36       63.8        
C           107.19      -9.35       64.67       
C           106.24      -9.07       65.65       
C           105.44      -7.95       65.58       
C           102.34      -3.15       66.25       
C           100.9       -3.94       64.37       
C           108.36      -5.29       63.05       
C           107.06      -6.49       61.2        
H           106.15      -3.34       62.21       
H           103.3       -6.01       65.38       
H           108.35      -8.51       63.06       
H           104.55      -7.91       66.12       
H           100.76      -0.82       64.57       
H           105.05      -0.91       61.89       
H           101.44      -2.59       66.53       
H           102.4       -4.08       66.78       
H           103.17363   -2.50711    66.53259    
H           100.8       -4.76       65.02       
H           100.13      -3.18       64.5        
H           100.85022   -4.30983    63.34587    
H           108.1       -6.8        61.16       
H           106.47      -7.39       61.05       
H           106.82877   -5.68791    60.49908    
H           108.53      -4.48       62.32       
H           109.19      -5.93       62.86       
H           108.46355   -5.04148    64.10623    
H           100.74      1.87        64.1        
H           108.37      -11.24      64.17       
S           103.96      1.91        62.27       
C           101.72      1.62        63.65       
C           102.48      2.59        63.09       
C           106.53      -15.79      66.57       
C           107.7       -15.27      65.92       
C           105.58      -14.85      66.91       
N           108.64      -15.9       65.29       
N           108.96      -13.73      64.97       
O           109.48      -15.0       64.74       
H           104.92      -12.81      66.85       
H           104.63      -15.14      67.35       
C           105.74      -13.48      66.6        
C           107.83      -13.88      65.62       
C           106.82      -12.91      65.93       
C           98.46       -30.05      69.06       
C           97.95       -29.12      68.21       
S           99.88       -29.57      69.84       
C           101.0       -23.91      67.14       
C           101.74      -24.9       67.8        
C           103.08      -24.7       68.21       
C           103.64      -23.45      68.03       
C           102.92      -22.42      67.37       
C           101.63      -22.65      66.91       
C           105.1       -23.11      68.34       
C           105.1       -21.62      68.0        
C           103.85      -21.31      67.27       
C           99.63       -24.45      66.69       
C           99.66       -25.84      67.28       
C           100.79      -26.0       68.14       
C           106.15      -20.68      68.05       
C           105.94      -19.43      67.46       
C           104.71      -19.23      66.76       
C           103.67      -20.17      66.6        
C           98.72       -26.84      67.24       
C           98.87       -27.98      68.07       
C           99.97       -28.03      68.99       
C           100.96      -27.09      68.97       
C           106.08      -23.9       67.42       
C           105.34      -23.28      69.87       
C           99.48       -24.48      65.19       
C           98.51       -23.61      67.33       
H           101.12      -21.86      66.38       
H           103.62      -25.42      68.83       
H           97.87       -26.64      66.6        
H           101.83      -27.2       69.59       
H           107.02      -20.89      68.58       
H           102.86      -19.93      66.03       
H           106.41      -24.85      67.87       
H           106.96      -23.32      67.08       
H           105.56118   -24.28729   66.54311    
H           105.17      -24.33      70.12       
H           106.35      -22.92      70.14       
H           104.59997   -22.69356   70.41455    
H           97.49       -23.97      67.11       
H           98.57       -23.77      68.39       
H           98.46833    -22.57531   66.98973    
H           98.42       -24.45      65.02       
H           100.0       -23.55      64.79       
H           99.92023    -25.36757   64.73556    
H           107.73      -18.14      67.77       
H           97.08       -29.2       67.64       
S           104.65      -17.65      66.09       
C           106.77      -18.27      67.29       
C           106.2       -17.18      66.79       
C           97.68       -34.46      69.37       
C           96.67       -33.53      68.89       
C           98.8        -33.78      69.68       
N           95.48       -33.8       68.44       
N           95.74       -31.52      68.55       
O           94.91       -32.54      68.21       
H           100.06      -31.99      69.83       
H           99.71       -34.41      69.87       
C           99.05       -32.36      69.65       
C           96.88       -32.1       68.86       
C           98.12       -31.41      69.21       
C           100.91      -50.66      70.37       
C           101.09      -49.81      71.36       
S           100.36      -49.84      68.93       
C           99.77       -43.82      70.87       
C           99.54       -44.51      69.69       
C           99.01       -43.94      68.51       
C           98.62       -42.63      68.58       
C           98.82       -41.87      69.82       
C           99.45       -42.44      70.9        
C           98.29       -41.72      67.43       
C           98.07       -40.39      68.17       
C           98.3        -40.54      69.58       
C           100.41      -44.69      71.99       
C           100.49      -46.05      71.24       
C           99.98       -45.88      69.91       
C           97.86       -39.16      67.62       
C           97.66       -38.05      68.48       
C           97.91       -38.24      69.92       
C           98.28       -39.46      70.48       
C           100.73      -47.27      71.86       
C           100.75      -48.39      71.02       
C           100.38      -48.24      69.68       
C           100.02      -47.02      69.11       
C           97.04       -42.32      66.82       
C           99.48       -41.7       66.44       
C           99.33       -44.55      73.09       
C           101.82      -44.1       72.37       
H           99.55       -41.84      71.84       
H           98.74       -44.57      67.67       
H           101.12      -47.44      72.87       
H           99.77       -47.06      68.1        
H           97.62       -39.09      66.56       
H           98.78       -39.57      71.43       
H           97.0        -43.41      66.57       
H           96.27       -42.12      67.54       
H           96.63115    -41.6888    66.031      
H           99.63       -42.67      65.9        
H           99.31       -40.9       65.7        
H           100.43568   -41.41764   66.88164    
H           101.77      -43.11      72.96       
H           102.35      -44.89      72.88       
H           102.44349   -43.9695    71.48551    
H           99.41       -43.56      73.68       
H           98.39       -44.75      72.62       
H           99.47163    -45.24397   73.91852    
H           97.1        -36.29      67.25       
H           101.36      -50.17      72.41       
S           97.93       -36.78      70.82       
C           97.28       -36.67      68.23       
C           97.56       -35.9       69.35       
C           101.48      -54.88      70.11       
C           102.26      -54.15      71.05       
C           100.73      -54.18      69.24       
N           103.04      -54.57      72.03       
N           102.79      -52.4       72.38       
O           103.28      -53.54      72.93       
H           99.92       -52.33      68.7        
H           100.22      -54.62      68.38       
C           100.52      -52.82      69.43       
C           102.12      -52.74      71.2        
C           101.19      -52.05      70.33       
C           94.97       -67.74      75.48       
C           94.43       -67.05      74.5        
S           96.72       -67.66      75.42       
C           97.6        -63.4       70.8        
C           98.32       -64.12      71.76       
C           99.68       -63.87      71.99       
C           100.31      -62.89      71.24       
C           99.58       -62.14      70.34       
C           98.21       -62.42      70.09       
C           101.62      -62.24      71.64       
C           101.61      -60.97      70.78       
C           100.35      -60.93      70.05       
C           96.17       -63.78      70.89       
C           96.11       -64.88      71.89       
C           97.45       -65.1       72.41       
C           102.46      -59.85      70.85       
C           101.87      -58.7       70.37       
C           100.65      -58.69      69.56       
C           99.97       -59.85      69.31       
C           95.14       -65.58      72.51       
C           95.35       -66.35      73.63       
C           96.69       -66.56      74.05       
C           97.75       -65.94      73.41       
C           102.79      -63.21      71.39       
C           101.67      -61.72      73.09       
C           95.57       -64.33      69.52       
C           95.32       -62.57      71.35       
H           97.62       -61.82      69.37       
H           100.2       -64.32      72.81       
H           94.11       -65.55      72.07       
H           98.82       -66.07      73.74       
H           103.35      -59.81      71.46       
H           99.03       -59.86      68.71       
H           103.53      -63.14      72.13       
H           102.49      -64.2       71.25       
H           103.276     -62.91418   70.46027    
H           101.84      -62.63      73.76       
H           102.44      -60.98      73.24       
H           100.75958   -61.18103   73.3522     
H           95.11       -61.92      70.48       
H           94.39       -62.86      71.81       
H           95.82836    -61.86395   72.00663    
H           95.57       -63.57      68.76       
H           94.63       -64.64      69.63       
H           96.04625    -65.21247   69.09277    
H           103.04      -56.98      71.24       
H           93.39       -66.99      74.33       
S           100.09      -57.08      69.25       
C           102.29      -57.29      70.57       
C           101.5       -56.32      69.93       
C           93.24       -70.21      78.85       
C           92.41       -69.73      77.71       
C           94.57       -69.84      78.68       
N           91.17       -70.05      77.39       
N           92.03       -68.67      75.77       
O           90.9        -69.32      76.26       
H           96.16       -68.94      77.5        
H           95.24       -70.2       79.45       
C           95.16       -69.2       77.52       
C           92.99       -68.96      76.64       
C           94.39       -68.6       76.56       
C           89.21       -79.12      92.23       
C           88.34       -78.49      91.4        
S           90.83       -78.33      92.05       
C           89.65       -74.39      87.19       
C           90.73       -74.82      87.95       
C           92.06       -74.46      87.66       
C           92.23       -73.77      86.42       
C           91.18       -73.41      85.65       
C           89.85       -73.68      85.99       
C           93.57       -73.69      85.67       
C           93.03       -73.04      84.4        
C           91.63       -72.88      84.41       
C           88.29       -74.96      87.65       
C           88.82       -75.73      88.89       
C           90.23       -75.63      89.11       
C           93.8        -72.56      83.38       
C           93.15       -72.06      82.2        
C           91.68       -71.87      82.22       
C           90.95       -72.27      83.34       
C           88.08       -76.57      89.74       
C           88.84       -77.41      90.55       
C           90.26       -77.3       90.73       
C           90.94       -76.32      90.0        
C           94.19       -75.14      85.53       
C           94.46       -72.63      86.37       
C           87.73       -75.94      86.56       
C           87.18       -73.94      88.04       
H           89.04       -73.33      85.44       
H           92.91       -74.9       88.18       
H           87.03       -76.71      89.52       
H           92.01       -76.18      90.11       
H           94.87       -72.73      83.32       
H           89.87       -72.08      83.47       
H           93.88       -75.71      86.42       
H           93.73       -75.56      84.62       
H           95.27251    -75.14708   85.40265    
H           94.83       -72.9       87.36       
H           95.42       -72.38      85.84       
H           93.85909    -71.74294   86.5703     
H           86.25       -74.52      88.21       
H           87.44       -73.54      89.06       
H           86.90856    -73.18997   87.29711    
H           87.8        -75.43      85.54       
H           86.66       -76.28      86.67       
H           88.42232    -76.77807   86.47984    
H           94.74       -71.77      80.74       
H           87.32       -78.8       91.36       
S           91.18       -71.03      80.75       
C           93.7        -71.58      80.98       
C           92.83       -70.96      80.1        
C           89.07       -82.5       95.07       
C           88.09       -82.33      93.95       
C           89.89       -81.36      95.21       
N           87.03       -83.06      93.67       
N           86.96       -81.17      92.5        
O           86.34       -82.37      92.77       
H           90.84       -79.64      94.4        
H           90.64       -81.25      95.98       
C           90.0        -80.3       94.27       
C           88.05       -81.16      93.17       
C           89.12       -80.22      93.2        
C           89.82       -94.41      106.74      
C           90.79       -93.42      106.64      
S           88.7        -94.34      105.41      
C           90.82       -89.27      102.08      
C           89.81       -90.29      101.96      
C           88.82       -90.29      101.01      
C           88.84       -89.33      100.03      
C           89.85       -88.26      100.11      
C           90.88       -88.22      101.09      
C           88.06       -89.2       98.76       
C           88.53       -87.78      98.32       
C           89.54       -87.23      99.12       
C           91.88       -89.74      103.14      
C           91.1        -90.83      103.86      
C           89.96       -91.21      103.09      
C           88.03       -87.01      97.19       
C           88.55       -85.7       96.99       
C           89.6        -85.28      97.79       
C           90.15       -86.02      98.86       
C           91.44       -91.49      105.03      
C           90.63       -92.59      105.45      
C           89.48       -92.93      104.71      
C           89.15       -92.26      103.55      
C           86.6        -89.07      99.16       
C           88.46       -90.11      97.65       
C           92.41       -88.52      103.98      
C           93.12       -90.43      102.49      
H           91.55       -87.38      101.14      
H           88.12       -91.09      101.03      
H           92.36       -91.21      105.57      
H           88.28       -92.6       103.0       
H           87.33       -87.52      96.53       
H           90.87       -85.68      99.6        
H           86.35       -89.94      99.76       
H           85.89       -89.06      98.32       
H           86.38463    -88.23006   99.82047    
H           89.58       -90.05      97.58       
H           88.1        -89.73      96.66       
H           88.14647    -91.13419   97.85205    
H           93.83       -90.67      103.29      
H           92.96       -91.41      102.0       
H           93.55889    -89.84482   101.68189   
H           92.97       -87.8       103.4       
H           93.08       -88.92      104.68      
H           91.62983    -88.00691   104.54229   
H           87.7        -84.96      95.1        
H           91.51       -93.26      107.43      
S           90.03       -83.65      97.4        
C           88.32       -84.79      95.91       
C           89.08       -83.63      95.93       
C           88.71       -97.75      109.46      
C           89.68       -96.74      109.77      
C           88.1        -97.47      108.26      
N           90.41       -96.72      110.87      
N           90.93       -94.9       109.65      
O           91.16       -95.56      110.82      
H           87.82       -96.22      106.55      
H           87.27       -98.09      107.92      
C           88.37       -96.34      107.45      
C           90.02       -95.58      109.0       
C           89.45       -95.45      107.73      
C           83.67       -111.92     116.31      
C           83.15       -111.45     115.18      
S           85.12       -111.03     116.81      
C           85.31       -106.44     112.47      
C           86.04       -106.91     113.57      
C           87.05       -106.15     114.14      
C           87.3        -104.9      113.63      
C           86.67       -104.47     112.36      
C           85.64       -105.24     111.79      
C           88.14       -103.73     114.19      
C           88.18       -102.78     112.96      
C           87.26       -103.23     111.97      
C           84.17       -107.46     112.14      
C           84.46       -108.55     113.16      
C           85.52       -108.17     113.98      
C           88.75       -101.5      112.79      
C           88.42       -100.73     111.71      
C           87.49       -101.22     110.73      
C           86.92       -102.51     110.81      
C           83.68       -109.6      113.47      
C           83.92       -110.37     114.65      
C           85.05       -109.98     115.44      
C           85.88       -108.93     115.1       
C           89.57       -104.18     114.55      
C           87.46       -103.17     115.47      
C           84.28       -108.14     110.74      
C           82.76       -106.89     112.48      
H           85.18       -104.9      110.84      
H           87.59       -106.48     115.01      
H           82.91       -110.01     112.92      
H           86.75       -108.66     115.75      
H           89.45       -101.15     113.58      
H           86.24       -102.85     110.06      
H           90.04       -103.48     115.24      
H           89.51       -105.15     115.03      
H           90.18452    -104.26885  113.65414   
H           87.09       -104.09     116.01      
H           88.25       -102.72     116.09      
H           86.65664    -102.44625  115.33249   
H           82.15       -107.79     112.31      
H           82.84       -106.7      113.58      
H           82.46869    -106.01606  111.89737   
H           84.1        -107.38     109.99      
H           83.55       -108.91     110.73      
H           85.27488    -108.54636  110.55784   
H           89.54       -98.81      112.03      
H           82.15       -111.76     114.87      
S           87.28       -100.09     109.44      
C           88.89       -99.39      111.38      
C           88.44       -98.97      110.21      
C           82.43       -115.25     119.02      
C           82.02       -115.22     117.63      
C           83.14       -114.11     119.36      
N           81.26       -116.07     117.0       
N           81.82       -114.48     115.57      
O           81.1        -115.61     115.76      
H           84.16       -112.29     118.98      
H           83.57       -114.07     120.4       
C           83.54       -113.05     118.5       
C           82.42       -114.19     116.73      
C           83.2        -112.95     117.16      
H           101.03      52.99       30.53       
H           81.96       -115.85     119.77      
