612

C           85.74       18.87       17.89       
C           84.63       18.36       17.35       
S           85.4        20.07       19.07       
C           79.13       19.76       19.52       
C           80.26       20.35       20.15       
C           80.06       21.38       21.07       
C           78.73       21.74       21.38       
C           77.62       21.08       20.79       
C           77.77       20.03       19.85       
C           78.29       22.87       22.29       
C           76.77       22.92       22.0        
C           76.39       21.8        21.15       
C           79.62       19.04       18.28       
C           81.11       19.11       18.41       
C           81.42       19.89       19.58       
C           75.83       23.85       22.4        
C           74.43       23.61       22.05       
C           74.1        22.47       21.22       
C           75.08       21.63       20.7        
C           82.14       18.55       17.63       
C           83.44       18.84       17.99       
C           83.65       19.72       19.06       
C           82.72       20.28       19.78       
C           79.02       24.17       21.92       
C           78.43       22.56       23.74       
C           79.21       19.82       16.95       
C           79.12       17.57       18.1        
H           76.95       19.55       19.32       
H           80.87       21.88       21.59       
H           81.9        18.16       16.67       
H           83.01       21.01       20.56       
H           76.07       24.66       23.08       
H           74.9        20.87       19.94       
H           80.14       24.01       22.1        
H           78.82       24.93       22.68       
H           78.77518    24.56319    20.93331    
H           77.93       21.61       23.92       
H           77.87       23.35       24.22       
H           79.40467    22.44165    24.21341    
H           78.06       17.58       17.65       
H           79.85       17.1        17.55       
H           79.07359    17.01312    19.03586    
H           78.11       19.88       16.95       
H           79.4        19.17       16.11       
H           79.75847    20.74115    16.75311    
H           73.16       25.34       22.76       
H           84.68       17.53       16.6        
S           72.4        22.31       21.06       
C           73.22       24.42       22.27       
C           72.07       23.89       21.7        
C           89.81       17.65       17.13       
C           88.8        16.65       17.22       
C           89.45       18.96       17.37       
N           88.78       15.3        17.03       
N           86.61       15.96       17.4        
O           87.45       14.89       17.07       
H           87.9        20.3        17.88       
H           90.2        19.76       17.26       
C           88.14       19.22       17.77       
C           87.42       17.04       17.44       
C           87.08       18.38       17.68       
C           105.04      16.18       10.52       
C           104.59      17.42       10.97       
S           104.03      14.83       11.07       
C           99.07       17.78       13.66       
C           99.48       16.48       13.37       
C           98.66       15.38       13.63       
C           97.34       15.64       13.97       
C           96.93       16.97       14.33       
C           97.81       17.96       14.24       
C           96.34       14.59       14.47       
C           95.24       15.53       15.07       
C           95.54       16.89       14.81       
C           100.16      18.82       13.37       
C           101.26      17.9        12.85       
C           100.86      16.56       12.89       
C           94.03       15.17       15.64       
C           93.14       16.23       16.02       
C           93.47       17.6        15.82       
C           94.71       17.93       15.28       
C           102.5       18.27       12.37       
C           103.34      17.31       11.76       
C           102.9       15.95       11.81       
C           101.69      15.56       12.49       
C           96.76       13.64       15.58       
C           95.67       13.91       13.22       
C           100.56      19.53       14.68       
C           99.93       19.75       12.2        
H           97.47       18.91       14.45       
H           98.92       14.37       13.38       
H           102.76      19.27       12.23       
H           101.27      14.57       12.37       
H           93.72       14.13       15.73       
H           95.03       18.97       15.3        
H           97.41       12.83       15.23       
H           95.89       13.19       16.05       
H           97.3424     14.05496    16.40263    
H           95.28       14.73       12.58       
H           94.77       13.27       13.39       
H           96.31559    13.2715     12.61698    
H           100.7       20.44       11.98       
H           99.82       19.21       11.32       
H           99.1087     20.45298    12.3392     
H           100.83      20.62       14.48       
H           99.7        19.61       15.42       
H           101.28959   18.93632    15.23077    
H           91.26       15.24       16.72       
H           105.04      18.36       10.62       
S           92.14       18.66       16.29       
C           91.75       16.17       16.5        
C           91.2        17.34       16.83       
C           107.81      15.06       7.32        
C           107.81      16.42       7.83        
C           107.0       14.21       7.97        
N           108.5       17.53       7.45        
N           107.05      18.07       9.16        
O           107.95      18.52       8.26        
H           105.44      13.81       9.35        
H           107.02      13.23       7.68        
C           106.12      14.58       9.07        
C           106.93      16.78       8.97        
C           106.06      15.83       9.58        
C           118.22      8.8         -4.03       
C           117.92      8.15        -2.87       
S           117.69      10.46       -4.05       
C           114.4       10.76       1.31        
C           114.75      11.7        0.31        
C           114.2       12.95       0.29        
C           113.3       13.34       1.26        
C           112.95      12.42       2.24        
C           113.59      11.13       2.29        
C           112.61      14.73       1.56        
C           111.66      14.28       2.69        
C           111.95      12.99       3.06        
C           114.86      9.37        1.04        
C           115.68      9.62        -0.23       
C           115.6       10.98       -0.69       
C           110.88      15.16       3.45        
C           110.14      14.64       4.52        
C           110.44      13.26       4.86        
C           111.37      12.38       4.16        
C           116.48      8.72        -0.8        
C           117.12      8.98        -1.98       
C           116.99      10.37       -2.43       
C           116.32      11.35       -1.81       
C           111.86      15.12       0.27        
C           113.57      15.82       2.04        
C           113.74      8.5         0.61        
C           115.7       8.62        2.17        
H           113.34      10.47       3.11        
H           114.37      13.63       -0.57       
H           116.59      7.73        -0.45       
H           116.26      12.28       -2.3        
H           110.7       16.14       3.18        
H           111.64      11.41       4.6         
H           112.65      15.2        -0.53       
H           111.22      14.26       0.09        
H           111.20594   15.98984    0.33069     
H           113.96      16.18       1.11        
H           113.13      16.56       2.78        
H           114.41433   15.35093    2.54515     
H           114.96      8.01        2.73        
H           116.32      7.82        1.69        
H           116.31452   9.2779      2.78452     
H           114.16      7.49        0.52        
H           112.88      8.42        1.36        
H           113.34205   8.71707     -0.38127    
H           109.0       16.37       5.2         
H           118.18      7.09        -2.65       
S           109.58      13.03       6.37        
C           109.24      15.34       5.34        
C           108.72      14.59       6.27        
C           119.78      7.16        -7.86       
C           119.25      6.38        -6.78       
C           119.85      8.53        -7.53       
N           119.14      5.07        -6.77       
N           118.58      5.9         -4.77       
O           118.59      4.82        -5.58       
H           119.23      10.1        -6.29       
H           120.31      9.18        -8.27       
C           119.24      9.04        -6.3        
C           118.92      6.89        -5.52       
C           118.78      8.26        -5.25       
C           128.91      4.29        -21.37      
C           128.6       5.53        -20.8       
S           128.28      2.97        -20.45      
C           124.5       6.21        -16.45      
C           125.0       4.89        -16.57      
C           124.51      3.88        -15.69      
C           123.77      4.29        -14.6       
C           123.31      5.63        -14.47      
C           123.68      6.56        -15.35      
C           123.58      3.49        -13.35      
C           122.69      4.48        -12.58      
C           122.57      5.69        -13.24      
C           125.49      7.14        -17.21      
C           126.2       6.12        -18.08      
C           125.95      4.77        -17.73      
C           122.04      4.33        -11.38      
C           121.34      5.39        -10.83      
C           121.34      6.62        -11.49      
C           121.92      6.8         -12.73      
C           127.05      6.43        -19.11      
C           127.67      5.38        -19.71      
C           127.33      4.06        -19.46      
C           126.56      3.69        -18.32      
C           124.96      3.15        -12.71      
C           122.8       2.24        -13.71      
C           126.4       7.85        -16.11      
C           124.79      8.06        -18.24      
H           123.37      7.63        -15.1       
H           124.82      2.88        -15.77      
H           127.12      7.43        -19.52      
H           126.34      2.69        -17.96      
H           121.97      3.4         -10.9       
H           121.85      7.79        -13.22      
H           125.05      2.07        -12.62      
H           125.74      3.46        -13.38      
H           125.14411   3.66693     -11.7682    
H           123.42      1.54        -14.3       
H           122.58      1.72        -12.75      
H           121.89812   2.38682     -14.30426   
H           125.49      8.78        -18.64      
H           124.43      7.44        -19.04      
H           124.04165   8.7292      -17.81545   
H           125.7       8.05        -15.26      
H           126.8       8.82        -16.37      
H           127.22249   7.23859     -15.73879   
H           120.93      4.69        -8.75       
H           128.91      6.48        -21.15      
S           120.64      7.8         -10.45      
C           120.81      5.49        -9.47       
C           120.38      6.75        -9.11       
C           131.55      4.18        -24.96      
C           130.72      3.14        -24.61      
C           131.53      5.18        -24.07      
N           130.59      2.06        -25.29      
N           129.32      1.84        -23.42      
O           129.8       1.27        -24.51      
H           130.57      6.11        -22.39      
H           132.03      6.16        -24.23      
C           130.54      5.23        -23.01      
C           129.84      3.03        -23.46      
C           129.69      4.18        -22.63      
C           141.45      7.23        -37.97      
C           141.81      7.44        -36.65      
S           139.92      6.38        -38.04      
C           138.22      5.93        -31.9       
C           137.85      5.4         -33.16      
C           136.64      4.78        -33.29      
C           135.91      4.53        -32.14      
C           136.35      4.9         -30.85      
C           137.51      5.63        -30.73      
C           134.62      3.75        -31.95      
C           134.33      3.92        -30.45      
C           135.35      4.67        -29.82      
C           139.41      6.88        -32.09      
C           139.7       6.72        -33.58      
C           138.79      5.89        -34.16      
C           133.18      3.52        -29.72      
C           133.19      3.88        -28.34      
C           134.17      4.66        -27.79      
C           135.35      4.96        -28.46      
C           140.69      7.31        -34.33      
C           140.83      7.05        -35.73      
C           139.79      6.27        -36.3       
C           138.77      5.78        -35.54      
C           134.91      2.24        -32.18      
C           133.48      4.26        -32.81      
C           140.61      6.46        -31.22      
C           139.04      8.37        -31.78      
H           137.78      6.16        -29.86      
H           136.38      4.37        -34.3       
H           141.51      7.82        -33.78      
H           137.95      5.22        -35.98      
H           132.37      3.09        -30.19      
H           136.11      5.68        -28.03      
H           135.18      2.07        -33.24      
H           134.04      1.65        -32.02      
H           135.68665   1.81249     -31.54585   
H           133.71      4.25        -33.89      
H           132.59      3.64        -32.68      
H           133.22122   5.29512     -32.58716   
H           138.95      8.61        -30.74      
H           139.91      8.98        -32.15      
H           138.15678   8.73922     -32.30125   
H           141.47      7.17        -31.32      
H           140.21      6.62        -30.21      
H           140.84977   5.39918     -31.29266   
H           131.28      2.98        -27.55      
H           142.7       8.05        -36.36      
S           133.75      5.17        -26.16      
C           132.15      3.63        -27.41      
C           132.32      4.25        -26.21      
C           143.23      8.79        -41.66      
C           143.45      9.5         -40.52      
C           142.4       7.67        -41.61      
N           144.06      10.63       -40.22      
N           142.88      9.97        -38.44      
O           143.81      10.9        -38.92      
H           141.49      6.11        -40.45      
H           142.29      7.09        -42.47      
C           141.96      7.09        -40.38      
C           142.78      9.02        -39.34      
C           142.07      7.75        -39.19      
C           147.55      16.68       -55.55      
C           147.72      17.24       -54.28      
S           146.78      15.1        -55.47      
C           145.9       14.38       -49.3       
C           146.02      13.6        -50.5       
C           145.88      12.19       -50.51      
C           145.5       11.64       -49.28      
C           145.41      12.38       -48.06      
C           145.67      13.77       -48.09      
C           145.35      10.15       -48.95      
C           144.93      10.23       -47.47      
C           144.98      11.54       -46.94      
C           146.11      15.86       -49.69      
C           146.58      15.7        -51.13      
C           146.32      14.43       -51.62      
C           144.67      9.14        -46.59      
C           144.32      9.49        -45.27      
C           144.47      10.82       -44.86      
C           144.88      11.89       -45.66      
C           147.04      16.73       -51.92      
C           147.11      16.43       -53.29      
C           146.72      15.15       -53.74      
C           146.46      14.12       -52.93      
C           146.64      9.28        -49.26      
C           144.12      9.6         -49.71      
C           147.12      16.62       -48.73      
C           144.86      16.71       -49.77      
H           145.52      14.37       -47.25      
H           146.0       11.67       -51.38      
H           147.38      17.7        -51.45      
H           146.26      13.13       -53.26      
H           144.67      8.11        -46.94      
H           144.83      12.89       -45.23      
H           146.37      8.35        -49.81      
H           147.16      9.77        -50.1       
H           147.28266   9.06814     -48.40548   
H           144.22      9.59        -50.79      
H           143.78      8.59        -49.4       
H           143.29207   10.30865    -49.68895   
H           144.8       17.48       -49.01      
H           144.75      17.08       -50.78      
H           143.92579   16.17515    -49.59885   
H           147.32      17.71       -49.06      
H           146.58      16.72       -47.75      
H           148.06251   16.08794    -48.60079   
H           143.68      7.52        -44.29      
H           148.12      18.24       -54.09      
S           143.74      10.95       -43.28      
C           143.88      8.62        -44.19      
C           143.68      9.27        -42.98      
C           149.28      18.19       -59.3       
C           148.29      17.14       -59.3       
C           149.57      18.6        -57.98      
N           147.86      16.43       -60.33      
N           146.71      15.83       -58.44      
O           146.83      15.65       -59.8       
H           149.44      18.46       -55.83      
H           150.43      19.37       -57.91      
C           148.99      18.1        -56.74      
C           147.63      16.71       -58.06      
C           148.06      17.19       -56.74      
C           158.74      23.19       -71.91      
C           158.94      23.68       -70.65      
S           157.25      22.32       -72.08      
C           155.01      22.44       -66.12      
C           154.58      22.12       -67.44      
C           153.42      21.41       -67.53      
C           152.91      20.87       -66.44      
C           153.37      21.11       -65.19      
C           154.37      22.05       -65.02      
C           151.72      19.94       -66.37      
C           151.62      19.63       -64.86      
C           152.63      20.36       -64.17      
C           156.26      23.42       -66.28      
C           156.54      23.28       -67.78      
C           155.57      22.52       -68.45      
C           150.57      19.06       -64.08      
C           150.59      19.14       -62.71      
C           151.66      19.83       -62.05      
C           152.7       20.43       -62.82      
C           157.63      23.74       -68.46      
C           157.79      23.33       -69.79      
C           156.75      22.65       -70.44      
C           155.56      22.3        -69.79      
C           151.99      18.67       -67.24      
C           150.39      20.65       -66.78      
C           157.63      22.94       -65.63      
C           156.0       24.9        -66.01      
H           154.76      22.4        -64.09      
H           153.06      21.15       -68.51      
H           158.38      24.29       -67.96      
H           154.84      21.85       -70.3       
H           149.85      18.46       -64.58      
H           153.46      21.05       -62.41      
H           151.91      18.96       -68.29      
H           152.98      18.27       -67.07      
H           151.31808   17.84083    -67.01841   
H           150.45      20.91       -67.87      
H           149.49      20.01       -66.76      
H           150.24878   21.60139    -66.26714   
H           156.98      25.33       -65.76      
H           155.76      25.31       -66.94      
H           155.29401   25.19238    -65.2327    
H           157.57      23.04       -64.51      
H           158.31      23.72       -66.01      
H           157.90371   21.8943     -65.77036   
H           148.92      17.88       -62.12      
H           159.89      24.21       -70.41      
S           151.53      19.53       -60.35      
C           149.71      18.48       -61.82      
C           149.96      18.72       -60.49      
C           161.58      22.73       -75.25      
C           161.66      23.79       -74.33      
C           160.45      21.96       -75.0       
N           162.54      24.78       -74.21      
N           160.91      25.2        -72.7       
O           162.03      25.66       -73.29      
H           158.78      21.4        -73.91      
H           160.23      21.16       -75.67      
C           159.52      22.16       -73.98      
C           160.64      24.08       -73.32      
C           159.57      23.19       -73.08      
C           174.08      17.01       -84.31      
C           172.96      16.22       -84.22      
S           173.68      18.67       -84.15      
C           167.78      18.57       -81.52      
C           168.79      19.49       -81.92      
C           168.72      20.88       -81.55      
C           167.74      21.2        -80.66      
C           166.8       20.25       -80.18      
C           166.74      18.96       -80.74      
C           167.39      22.56       -80.2       
C           166.3       22.26       -79.24      
C           165.87      20.9        -79.31      
C           168.2       17.18       -82.04      
C           169.56      17.46       -82.82      
C           169.89      18.81       -82.64      
C           165.57      23.06       -78.38      
C           164.4       22.57       -77.74      
C           163.97      21.29       -77.98      
C           164.68      20.42       -78.86      
C           170.49      16.53       -83.36      
C           171.75      16.97       -83.83      
C           172.0       18.34       -83.73      
C           171.14      19.27       -83.14      
C           166.93      23.34       -81.47      
C           168.56      23.26       -79.53      
C           167.05      16.63       -82.87      
C           168.46      16.12       -80.9       
H           165.95      18.31       -80.53      
H           169.46      21.64       -81.8       
H           170.23      15.48       -83.44      
H           171.46      20.31       -82.93      
H           165.89      24.09       -78.24      
H           164.38      19.39       -78.99      
H           167.89      23.77       -81.75      
H           166.58      22.71       -82.24      
H           166.17982   24.1042     -81.26668   
H           169.3       23.59       -80.33      
H           168.17      24.08       -78.89      
H           169.08796   22.59649    -78.84508   
H           167.6       15.55       -80.66      
H           169.16      15.38       -81.41      
H           169.05433   16.49757    -80.06794   
H           166.1       16.51       -82.32      
H           167.26      15.62       -83.13      
H           166.96062   17.27628    -83.74317   
H           163.66      24.17       -76.4       
H           172.97      15.1        -84.28      
S           162.5       20.9        -77.05      
C           163.57      23.2        -76.76      
C           162.49      22.5        -76.27      
C           178.3       15.81       -83.69      
C           177.41      14.91       -84.3       
C           177.8       17.04       -83.39      
N           177.49      13.64       -84.67      
N           175.39      14.29       -85.17      
O           176.35      13.29       -85.19      
H           176.21      18.48       -83.38      
H           178.45      17.72       -82.83      
C           176.48      17.44       -83.69      
C           176.07      15.34       -84.69      
C           175.55      16.68       -84.4       
C           190.91      10.71       -73.95      
C           189.71      10.12       -74.05      
S           191.0       12.14       -74.98      
C           185.32      12.0        -77.81      
C           186.39      12.91       -77.67      
C           186.23      14.21       -78.28      
C           185.15      14.46       -79.11      
C           184.14      13.5        -79.28      
C           184.26      12.25       -78.64      
C           184.77      15.74       -79.83      
C           183.57      15.29       -80.69      
C           183.11      14.01       -80.28      
C           185.48      10.85       -76.85      
C           186.9       11.09       -76.29      
C           187.45      12.31       -76.79      
C           182.9       16.06       -81.59      
C           181.7       15.55       -82.1       
C           181.25      14.24       -81.69      
C           181.96      13.47       -80.79      
C           187.56      10.39       -75.37      
C           188.79      10.76       -74.92      
C           189.33      11.94       -75.48      
C           188.7       12.71       -76.46      
C           185.88      16.23       -80.82      
C           184.41      16.88       -78.87      
C           185.58      9.51        -77.72      
C           184.46      10.73       -75.76      
H           183.49      11.51       -78.79      
H           187.07      14.93       -78.14      
H           187.21      9.46        -74.98      
H           189.09      13.63       -76.84      
H           183.38      16.97       -82.09      
H           181.47      12.52       -80.38      
H           186.78      16.68       -80.42      
H           185.48      16.98       -81.55      
H           186.22416   15.38791    -81.42045   
H           183.56      16.66       -78.24      
H           183.94      17.61       -79.61      
H           185.19357   17.30355    -78.24173   
H           183.5       10.33       -76.23      
H           184.72      10.01       -74.97      
H           184.29289   11.65607    -75.20993   
H           184.62      9.26        -78.17      
H           185.85      8.71        -77.09      
H           186.38168   9.55295     -78.45726   
H           180.63      17.28       -83.12      
H           189.49      9.11        -73.63      
S           179.81      13.72       -82.46      
C           180.62      16.2        -82.86      
C           179.59      15.35       -83.14      
C           194.49      9.05        -71.65      
C           193.16      8.65        -71.38      
C           194.51      10.02       -72.59      
N           192.67      7.72        -70.62      
N           190.92      8.51        -71.78      
O           191.34      7.66        -70.85      
H           193.7       11.27       -74.07      
H           195.53      10.41       -72.89      
C           193.41      10.57       -73.33      
C           192.01      9.21        -72.11      
C           192.08      10.22       -73.13      
C           208.99      3.79        -65.51      
C           208.87      4.76        -66.43      
S           207.53      2.79        -65.56      
C           203.7       6.04        -69.46      
C           203.69      4.82        -68.68      
C           202.5       4.22        -68.48      
C           201.27      4.82        -68.9       
C           201.27      6.02        -69.6       
C           202.48      6.62        -69.97      
C           199.85      4.47        -68.5       
C           199.07      5.67        -69.23      
C           199.95      6.53        -69.9       
C           205.18      6.45        -69.71      
C           205.88      5.69        -68.59      
C           205.01      4.59        -68.12      
C           197.71      5.91        -69.3       
C           197.24      6.99        -70.05      
C           198.19      7.79        -70.69      
C           199.51      7.6         -70.55      
C           207.19      5.75        -68.18      
C           207.66      4.77        -67.2       
C           206.77      3.74        -66.8       
C           205.46      3.62        -67.26      
C           199.81      4.35        -66.97      
C           199.43      3.16        -69.2       
C           205.29      8.01        -69.58      
C           205.72      6.02        -71.13      
H           202.49      7.55        -70.58      
H           202.5       3.33        -67.88      
H           207.85      6.52        -68.44      
H           204.72      2.83        -66.97      
H           196.99      5.25        -68.86      
H           200.18      8.32        -70.92      
H           199.46      3.34        -66.77      
H           200.83      4.3         -66.58      
H           199.26582   5.14535     -66.4607    
H           200.09      2.39        -68.79      
H           198.42      2.88        -68.9       
H           199.72904   3.10304     -70.24663   
H           206.03      6.85        -71.69      
H           206.65      5.53        -70.97      
H           205.03743   5.37374     -71.68186   
H           204.57      8.48        -70.18      
H           206.28      8.38        -69.84      
H           205.02509   8.3465      -68.57766   
H           195.06      6.83        -69.83      
H           209.53      5.58        -66.56      
S           197.35      9.14        -71.54      
C           195.89      7.37        -70.3       
C           195.74      8.44        -71.11      
C           212.08      2.91        -62.41      
C           212.3       3.93        -63.45      
C           211.0       2.1         -62.67      
N           213.38      4.74        -63.62      
N           211.72      5.32        -65.12      
O           212.96      5.61        -64.64      
H           209.12      1.84        -63.75      
H           210.78      1.3         -61.98      
C           210.0       2.46        -63.68      
C           211.31      4.23        -64.49      
C           210.06      3.53        -64.53      
H           71.01       24.26       21.72       
H           212.98      2.61        -61.81      
