612

C           80.09       30.98       34.28       
C           79.43       30.77       35.45       
S           79.06       30.68       32.9        
C           73.37       29.8        35.54       
C           74.03       29.54       34.32       
C           73.4        29.09       33.17       
C           72.11       28.65       33.27       
C           71.47       28.72       34.54       
C           72.13       29.31       35.63       
C           71.29       27.83       32.25       
C           70.17       27.34       33.19       
C           70.23       27.9        34.53       
C           74.37       30.26       36.66       
C           75.7        30.22       35.83       
C           75.43       29.94       34.47       
C           69.05       26.55       32.88       
C           68.1        26.27       33.82       
C           68.19       26.91       35.17       
C           69.26       27.75       35.47       
C           76.99       30.52       36.26       
C           78.03       30.55       35.29       
C           77.7        30.3        33.94       
C           76.46       29.95       33.54       
C           72.08       26.69       31.63       
C           70.65       28.79       31.18       
C           74.23       29.2        37.82       
C           74.23       31.68       37.18       
H           71.55       29.29       36.54       
H           73.87       28.96       32.17       
H           77.17       30.69       37.34       
H           76.36       29.72       32.5        
H           69.02       26.15       31.89       
H           69.34       28.08       36.48       
H           72.98       27.01       31.11       
H           71.47       26.22       30.87       
H           72.38459    25.92852    32.34797    
H           70.1        29.55       31.72       
H           69.95       28.32       30.5        
H           71.37891    29.41788    30.6676     
H           74.21       31.71       38.23       
H           75.08       32.27       36.82       
H           73.35157    32.18598    36.77944    
H           73.21       29.35       38.11       
H           74.88       29.26       38.69       
H           74.31621    28.15826    37.51107    
H           66.7        24.92       32.81       
H           79.88       30.88       36.45       
S           66.93       26.18       36.14       
C           66.9        25.55       33.66       
C           66.11       25.38       34.79       
C           84.37       31.04       32.98       
C           83.95       30.76       34.36       
C           83.3        31.4        32.18       
N           84.73       30.63       35.4        
N           82.59       30.67       36.15       
O           83.92       30.55       36.47       
H           81.21       31.81       32.05       
H           83.46       31.76       31.16       
C           81.96       31.41       32.69       
C           82.59       30.84       34.87       
C           81.52       31.06       33.94       
C           99.63       26.69       28.28       
C           99.02       26.27       29.41       
S           98.69       27.9        27.49       
C           93.8        28.63       31.62       
C           94.23       29.12       30.34       
C           93.4        30.01       29.53       
C           92.13       30.36       30.05       
C           91.68       29.74       31.26       
C           92.46       28.92       32.0        
C           90.93       30.95       29.27       
C           89.86       30.91       30.32       
C           90.28       30.11       31.36       
C           94.83       27.63       32.11       
C           95.77       27.54       30.95       
C           95.52       28.51       29.97       
C           88.58       31.46       30.31       
C           87.64       30.92       31.25       
C           88.07       30.03       32.33       
C           89.37       29.56       32.32       
C           96.95       26.8        30.89       
C           97.8        26.91       29.84       
C           97.48       27.84       28.77       
C           96.33       28.56       28.79       
C           90.62       30.13       27.97       
C           91.14       32.47       28.9        
C           94.15       26.2        32.28       
C           95.55       28.09       33.4        
H           91.98       28.51       32.87       
H           93.66       30.32       28.54       
H           97.22       26.03       31.62       
H           96.14       29.31       27.99       
H           88.24       31.96       29.41       
H           89.78       28.85       33.01       
H           91.42       30.05       27.23       
H           89.89       30.63       27.42       
H           90.28422    29.1021     28.10705    
H           91.5        32.83       29.87       
H           90.28       32.99       28.52       
H           91.85066    32.71406    28.11038    
H           95.84       27.23       34.01       
H           96.38       28.73       33.06       
H           94.96334    28.81974    33.95804    
H           94.61       25.56       33.06       
H           93.2        26.4        32.7        
H           94.07176    25.61678    31.36249    
H           85.85       32.13       30.9        
H           99.52       25.54       29.92       
S           86.74       29.53       33.33       
C           86.24       31.27       31.44       
C           85.65       30.69       32.54       
C           103.16      25.29       26.0        
C           102.69      24.55       27.19       
C           102.41      26.37       25.73       
N           103.1       23.41       27.66       
N           101.46      24.04       29.05       
O           102.42      23.12       28.8        
H           100.96      27.74       26.2        
H           102.6       26.95       24.79       
C           101.37      26.79       26.51       
C           101.53      24.9        27.97       
C           100.89      26.18       27.63       
C           117.7       22.56       19.19       
C           117.07      21.89       20.18       
S           116.51      23.46       18.29       
C           111.08      21.96       21.41       
C           111.55      22.94       20.53       
C           110.83      23.97       20.1        
C           109.61      24.15       20.75       
C           109.07      23.15       21.55       
C           109.79      21.97       21.89       
C           108.88      25.54       20.94       
C           107.62      25.04       21.77       
C           107.87      23.69       22.2        
C           112.26      21.0        21.76       
C           113.36      21.57       20.94       
C           112.91      22.58       20.11       
C           106.55      25.72       22.28       
C           105.86      25.11       23.31       
C           106.23      23.9        23.8        
C           107.16      23.12       23.14       
C           114.73      21.25       21.02       
C           115.6       21.98       20.25       
C           115.14      22.86       19.23       
C           113.73      23.19       19.14       
C           108.48      26.3        19.64       
C           109.74      26.44       21.84       
C           111.85      19.55       21.28       
C           112.49      20.99       23.27       
H           109.44      21.3        22.69       
H           111.27      24.76       19.52       
H           115.01      20.45       21.74       
H           113.48      24.06       18.57       
H           106.3       26.67       21.94       
H           107.45      22.15       23.57       
H           108.46      25.4        18.97       
H           107.58      26.89       19.69       
H           109.17406   27.04313    19.2474     
H           110.71      26.49       21.34       
H           109.26      27.41       21.97       
H           109.88802   26.05234    22.84792    
H           111.86      20.25       23.8        
H           113.51      20.71       23.46       
H           112.41172   22.01481    23.63295    
H           110.99      19.19       21.85       
H           111.48      19.54       20.22       
H           112.64353   18.81216    21.39833    
H           104.44      26.75       24.02       
H           117.64      21.28       20.87       
S           105.16      23.43       25.14       
C           104.81      25.72       24.13       
C           104.35      24.98       25.17       
C           122.04      22.8        18.07       
C           121.6       22.09       19.25       
C           120.96      23.36       17.39       
N           122.3       21.44       20.22       
N           120.03      21.52       20.85       
O           121.31      21.09       21.15       
H           118.86      23.64       17.07       
H           121.11      23.84       16.52       
C           119.6       23.3        17.82       
C           120.19      22.11       19.67       
C           119.13      22.68       18.9        
C           137.16      21.89       11.37       
C           136.61      20.88       12.15       
S           136.04      23.25       11.31       
C           131.12      21.2        14.93       
C           131.37      22.26       14.05       
C           130.48      23.22       13.62       
C           129.23      23.16       14.13       
C           129.0       22.14       15.12       
C           129.9       21.13       15.49       
C           127.98      23.78       13.54       
C           127.01      23.19       14.58       
C           127.58      22.37       15.54       
C           132.24      20.22       14.93       
C           133.31      20.94       14.06       
C           132.76      22.14       13.54       
C           125.68      23.6        14.76       
C           125.1       23.16       15.97       
C           125.64      22.23       16.84       
C           126.94      21.78       16.59       
C           134.63      20.56       13.73       
C           135.31      21.28       12.76       
C           134.79      22.55       12.26       
C           133.54      22.96       12.66       
C           127.75      23.17       12.14       
C           127.97      25.31       13.35       
C           131.72      18.94       14.31       
C           132.86      20.04       16.3        
H           129.72      20.38       16.32       
H           130.75      23.94       12.86       
H           134.93      19.58       14.06       
H           133.08      23.87       12.24       
H           125.28      24.24       14.03       
H           127.45      21.09       17.17       
H           128.25      23.63       11.29       
H           128.1       22.21       12.14       
H           126.73461   23.1556     11.74393    
H           128.34      25.63       12.45       
H           126.92      25.7        13.42       
H           128.55173   25.76812    14.14988    
H           133.85      19.63       16.24       
H           133.03      21.02       16.8        
H           132.30223   19.44737    17.0251     
H           130.82      18.56       14.71       
H           132.46      18.13       14.44       
H           131.5736    19.05851    13.2364     
H           123.05      24.05       15.72       
H           137.06      19.91       12.34       
S           124.58      21.93       18.19       
C           123.71      23.45       16.32       
C           123.33      22.82       17.44       
C           140.52      21.27       8.69        
C           140.0       22.61       8.93        
C           140.07      20.33       9.59        
N           140.37      23.73       8.29        
N           138.48      24.11       9.53        
O           139.4       24.63       8.61        
H           138.65      19.75       11.0        
H           140.41      19.33       9.64        
C           139.0       20.58       10.45       
C           138.89      22.88       9.73        
C           138.33      21.77       10.57       
C           148.36      15.57       -4.49       
C           147.36      14.96       -3.82       
S           148.77      17.1        -3.72       
C           144.83      17.26       1.19        
C           145.83      18.08       0.58        
C           146.0       19.37       1.0         
C           145.29      19.82       2.09        
C           144.39      18.93       2.76        
C           144.08      17.71       2.23        
C           145.09      21.2        2.67        
C           144.23      20.93       3.92        
C           143.87      19.59       3.89        
C           144.6       15.98       0.45        
C           145.54      16.16       -0.77       
C           146.31      17.34       -0.56       
C           143.8       21.76       4.9         
C           142.97      21.23       5.88        
C           142.61      19.81       5.79        
C           143.08      19.03       4.83        
C           145.84      15.31       -1.77       
C           146.87      15.66       -2.66       
C           147.49      16.92       -2.54       
C           147.29      17.73       -1.48       
C           144.34      22.28       1.86        
C           146.47      21.7        3.07        
C           143.14      16.0        0.12        
C           144.99      14.69       1.24        
H           143.26      17.15       2.59        
H           146.65      20.1        0.44        
H           145.29      14.4        -1.92       
H           147.84      18.67       -1.39       
H           144.02      22.88       4.77        
H           142.65      18.01       4.73        
H           144.92      22.44       0.97        
H           144.13      23.15       2.4         
H           143.39809   21.94756    1.42367     
H           147.02      21.77       2.11        
H           146.42      22.72       3.55        
H           147.00291   20.95538    3.66131     
H           144.18      14.25       1.79        
H           145.28      13.81       0.71        
H           145.74717   14.91858    1.99003     
H           142.6       15.27       0.77        
H           142.71      16.98       0.38        
H           142.81065   15.95704    -0.91816    
H           142.35      22.92       7.2         
H           146.97      13.98       -4.11       
S           141.56      19.28       7.09        
C           142.27      21.84       6.96        
C           141.49      20.94       7.67        
C           150.71      14.48       -8.05       
C           149.38      13.95       -7.79       
C           151.08      15.33       -7.08       
N           148.7       13.04       -8.55       
N           147.4       13.77       -6.79       
O           147.53      12.87       -7.82       
H           150.83      16.33       -5.21       
H           152.05      15.8        -7.15       
C           150.36      15.64       -5.9        
C           148.57      14.27       -6.65       
C           149.11      15.12       -5.66       
C           160.46      15.56       -21.59      
C           160.76      15.96       -20.38      
S           158.9       14.69       -21.54      
C           157.43      15.09       -15.23      
C           156.9       14.6        -16.45      
C           155.59      14.02       -16.49      
C           154.81      14.01       -15.4       
C           155.38      14.44       -14.19      
C           156.72      14.88       -14.1       
C           153.41      13.52       -15.22      
C           153.22      13.71       -13.65      
C           154.41      14.29       -13.12      
C           158.77      15.86       -15.57      
C           159.03      15.46       -17.04      
C           157.86      14.79       -17.54      
C           152.14      13.67       -12.87      
C           152.25      14.07       -11.49      
C           153.44      14.52       -10.93      
C           154.59      14.55       -11.77      
C           159.94      15.98       -17.95      
C           159.83      15.62       -19.33      
C           158.72      14.88       -19.79      
C           157.74      14.42       -18.93      
C           153.47      12.03       -15.61      
C           152.34      14.36       -15.98      
C           159.95      15.51       -14.61      
C           158.53      17.42       -15.55      
H           157.05      15.3        -13.16      
H           155.29      13.5        -17.39      
H           160.78      16.49       -17.54      
H           156.83      13.8        -19.08      
H           151.18      13.27       -13.31      
H           155.58      14.84       -11.39      
H           152.6       11.85       -16.26      
H           154.32      11.76       -16.14      
H           153.52662   11.38598    -14.73243   
H           152.29      14.12       -17.01      
H           151.3       14.21       -15.65      
H           152.52014   15.43392    -15.9315    
H           158.72      17.74       -14.5       
H           159.1       17.91       -16.29      
H           157.50109   17.70698    -15.76698   
H           160.61      16.42       -14.37      
H           159.49      15.25       -13.67      
H           160.51708   14.63811    -14.93607   
H           150.25      13.33       -10.68      
H           161.63      16.41       -20.09      
S           153.27      14.71       -9.19       
C           151.25      13.8        -10.49      
C           151.55      14.29       -9.29       
C           162.4       16.13       -25.52      
C           162.92      16.72       -24.35      
C           161.18      15.48       -25.3       
N           164.04      17.42       -24.26      
N           163.11      17.27       -22.19      
O           164.1       17.78       -23.01      
H           159.6       15.04       -23.92      
H           160.67      15.03       -26.08      
C           160.57      15.45       -24.04      
C           162.28      16.62       -23.05      
C           161.08      15.87       -22.86      
C           168.43      13.77       -40.96      
C           167.13      13.54       -40.62      
S           169.2       14.72       -39.65      
C           164.65      14.85       -35.15      
C           165.99      15.32       -35.32      
C           166.64      16.11       -34.31      
C           166.06      16.16       -33.0       
C           164.75      15.67       -32.88      
C           164.06      15.16       -33.95      
C           166.73      16.62       -31.72      
C           165.67      16.13       -30.74      
C           164.44      15.81       -31.41      
C           164.23      14.03       -36.31      
C           165.34      14.41       -37.3       
C           166.42      15.0        -36.68      
C           165.73      16.29       -29.41      
C           164.54      16.21       -28.69      
C           163.28      16.02       -29.37      
C           163.25      15.73       -30.72      
C           165.47      13.96       -38.65      
C           166.72      14.06       -39.3       
C           167.85      14.6        -38.59      
C           167.68      15.05       -37.31      
C           166.9       18.15       -31.77      
C           168.03      15.83       -31.49      
C           162.91      14.6        -36.86      
C           164.03      12.53       -36.08      
H           163.03      14.77       -33.66      
H           167.69      16.41       -34.44      
H           164.79      13.33       -39.21      
H           168.53      15.55       -36.83      
H           166.64      16.52       -28.94      
H           162.32      15.55       -31.23      
H           167.64      18.5        -32.54      
H           165.99      18.6        -32.18      
H           167.04971   18.6918     -30.83611   
H           168.95      16.22       -32.01      
H           168.44      16.02       -30.46      
H           167.9512    14.75541    -31.65477   
H           163.08      12.37       -35.61      
H           163.86      12.01       -37.04      
H           164.82252   12.03101    -35.5223    
H           162.16      14.28       -36.13      
H           162.63      14.06       -37.76      
H           162.83175   15.68121    -36.97381   
H           165.07      16.42       -26.54      
H           166.5       12.99       -41.24      
S           161.92      15.92       -28.23      
C           164.29      16.21       -27.24      
C           162.98      16.13       -26.85      
C           171.22      13.0        -44.27      
C           169.9       12.49       -44.34      
C           171.4       13.89       -43.26      
N           169.35      11.56       -45.12      
N           167.73      12.19       -43.66      
O           168.05      11.49       -44.82      
H           170.93      14.72       -41.4       
H           172.39      14.28       -43.08      
C           170.49      14.13       -42.21      
C           168.87      12.81       -43.31      
C           169.23      13.55       -42.08      
C           185.35      8.13        -51.55      
C           185.16      9.3         -50.95      
S           183.91      7.12        -51.51      
C           179.88      11.11       -48.54      
C           179.92      9.71        -48.91      
C           178.82      8.9         -48.81      
C           177.7       9.4         -48.18      
C           177.66      10.77       -47.81      
C           178.67      11.66       -48.07      
C           176.38      8.72        -47.76      
C           175.53      9.83        -47.2       
C           176.35      11.03       -47.23      
C           181.28      11.73       -48.59      
C           182.07      10.62       -49.22      
C           181.32      9.42        -49.41      
C           174.25      9.79        -46.76      
C           173.78      10.96       -46.14      
C           174.6       12.16       -46.11      
C           175.83      12.24       -46.78      
C           183.33      10.58       -49.75      
C           183.86      9.51        -50.41      
C           183.08      8.28        -50.5       
C           181.8       8.26        -50.0       
C           176.84      7.67        -46.68      
C           175.79      8.08        -49.01      
C           181.77      12.07       -47.18      
C           181.07      12.93       -49.47      
H           178.61      12.67       -47.72      
H           178.85      7.87        -49.16      
H           183.92      11.46       -49.63      
H           181.1       7.38        -50.13      
H           173.72      8.83        -46.68      
H           176.43      13.15       -46.87      
H           177.4       6.82        -47.12      
H           177.61      8.1         -46.06      
H           176.05881   7.30449     -46.01348   
H           176.59      7.5         -49.52      
H           174.86      7.57        -48.7       
H           175.52601   8.86503     -49.71861   
H           180.45      13.71       -48.98      
H           181.99      13.39       -49.86      
H           180.58666   12.68101    -50.41471   
H           181.16      12.93       -46.81      
H           182.8       12.35       -47.44      
H           181.67926   11.28127    -46.43315   
H           171.76      10.39       -45.24      
H           185.84      10.13       -51.11      
S           173.73      13.5        -45.34      
C           172.47      11.16       -45.51      
C           172.34      12.43       -44.97      
C           188.01      7.15        -54.91      
C           187.91      8.5         -54.44      
C           187.29      6.24        -54.18      
N           188.44      9.58        -54.9       
N           187.21      10.08       -53.09      
O           187.85      10.59       -54.18      
H           185.84      5.88        -52.63      
H           187.24      5.18        -54.48      
C           186.44      6.59        -53.07      
C           187.08      8.79        -53.29      
C           186.34      7.83        -52.58      
C           194.96      0.73        -68.36      
C           194.35      -0.04       -67.41      
S           194.63      2.41        -68.25      
C           191.61      2.52        -62.74      
C           192.06      3.44        -63.76      
C           191.9       4.84        -63.51      
C           191.36      5.2         -62.29      
C           190.94      4.31        -61.33      
C           190.97      2.99        -61.55      
C           191.29      6.61        -61.71      
C           190.5       6.4         -60.42      
C           190.43      4.99        -60.14      
C           191.9       1.09        -63.08      
C           192.53      1.28        -64.46      
C           192.71      2.68        -64.78      
C           190.24      7.24        -59.36      
C           189.58      6.75        -58.21      
C           189.43      5.37        -58.03      
C           189.84      4.43        -58.97      
C           193.08      0.3         -65.27      
C           193.72      0.74        -66.42      
C           193.85      2.11        -66.74      
C           193.36      3.13        -65.92      
C           190.55      7.6         -62.66      
C           192.66      7.16        -61.25      
C           190.51      0.46        -63.25      
C           192.74      0.45        -61.96      
H           190.62      2.3         -60.86      
H           192.18      5.66        -64.22      
H           192.99      -0.73       -65.02      
H           193.45      4.2         -66.07      
H           190.55      8.25        -59.36      
H           189.95      3.35        -58.8       
H           191.15      7.6         -63.56      
H           190.42      8.53        -62.19      
H           189.53816   7.30989     -62.94303   
H           192.97      6.52        -60.32      
H           192.52      8.24        -60.97      
H           193.48591   7.0906      -61.95792   
H           192.12      0.01        -61.22      
H           193.27      -0.36       -62.39      
H           193.47936   1.12598     -61.53047   
H           190.01      0.35        -62.28      
H           190.7       -0.6        -63.33      
H           189.96287   0.91719     -64.07445   
H           189.29      8.64        -57.17      
H           194.54      -1.13       -67.33      
S           188.68      5.07        -56.51      
C           189.1       7.55        -57.15      
C           188.67      6.77        -56.14      
C           197.61      -0.27       -71.69      
C           197.79      -0.92       -70.4       
C           196.67      0.67        -71.73      
N           198.54      -1.92       -70.05      
N           197.16      -1.47       -68.29      
O           198.17      -2.23       -68.82      
H           195.06      1.66        -70.83      
H           196.66      1.34        -72.63      
C           195.78      0.89        -70.67      
C           196.81      -0.71       -69.33      
C           195.82      0.31        -69.43      
C           206.53      -2.24       -85.45      
C           205.32      -1.62       -85.46      
S           207.08      -2.67       -83.84      
C           202.2       -0.88       -80.34      
C           203.43      -1.52       -80.16      
C           203.89      -1.93       -78.91      
C           203.16      -1.68       -77.81      
C           201.94      -1.0        -78.0       
C           201.42      -0.71       -79.21      
C           203.32      -2.13       -76.4       
C           202.01      -1.58       -75.75      
C           201.19      -0.91       -76.69      
C           201.83      -0.68       -81.78      
C           203.15      -1.05       -82.41      
C           204.03      -1.63       -81.46      
C           201.52      -1.8        -74.53      
C           200.33      -1.12       -74.13      
C           199.53      -0.46       -75.09      
C           199.9       -0.46       -76.44      
C           203.48      -0.99       -83.74      
C           204.72      -1.5        -84.15      
C           205.53      -2.12       -83.16      
C           205.19      -2.23       -81.83      
C           204.54      -1.49       -75.64      
C           203.27      -3.68       -76.25      
C           201.47      0.75        -82.15      
C           200.8       -1.74       -82.23      
H           200.42      -0.28       -79.25      
H           204.83      -2.4        -78.85      
H           202.82      -0.61       -84.49      
H           205.9       -2.77       -81.16      
H           202.06      -2.36       -73.86      
H           199.29      -0.01       -77.19      
H           204.88      -2.08       -74.79      
H           205.4       -1.62       -76.33      
H           204.3627    -0.45457    -75.34923   
H           204.23      -4.11       -76.47      
H           203.2       -3.85       -75.17      
H           202.45914   -4.08902    -76.85276   
H           200.64      -1.55       -83.29      
H           201.28      -2.67       -82.15      
H           199.85802   -1.66437    -81.68681   
H           200.52      1.02        -81.73      
H           201.41      0.98        -83.23      
H           202.2165    1.45301     -81.78038   
H           200.15      -1.56       -71.99      
H           204.89      -1.33       -86.37      
S           197.95      0.09        -74.48      
C           199.66      -1.15       -72.84      
C           198.45      -0.45       -72.83      
C           209.34      -3.04       -88.77      
C           208.46      -1.92       -88.86      
C           209.27      -3.72       -87.6       
N           208.4       -1.04       -89.8       
N           206.86      -0.5        -88.11      
O           207.47      -0.15       -89.31      
H           208.38      -4.11       -85.72      
H           209.77      -4.68       -87.57      
C           208.34      -3.45       -86.56      
C           207.51      -1.6        -87.79      
C           207.43      -2.45       -86.6       
H           64.99       25.23       34.71       
H           210.19      -3.24       -89.48      
