612

C           123.12      41.56       47.72       
C           122.79      42.83       47.94       
S           124.54      41.1        48.63       
C           126.24      46.69       51.2        
C           126.8       45.37       51.06       
C           128.12      45.13       51.56       
C           128.82      46.12       52.2        
C           128.28      47.37       52.26       
C           127.04      47.72       51.77       
C           130.3       46.01       52.59       
C           130.46      47.46       53.09       
C           129.28      48.23       52.84       
C           124.91      46.82       50.42       
C           124.81      45.43       49.86       
C           125.82      44.58       50.36       
C           131.61      48.13       53.54       
C           131.57      49.53       53.79       
C           130.43      50.2        53.41       
C           129.32      49.59       52.88       
C           123.76      44.91       49.14       
C           123.65      43.52       48.92       
C           124.79      42.74       49.29       
C           125.84      43.22       50.11       
C           131.23      45.79       51.35       
C           130.63      45.16       53.87       
C           125.03      47.89       49.28       
C           123.71      46.97       51.43       
H           126.74      48.76       51.9        
H           128.57      44.13       51.44       
H           123.04      45.62       48.71       
H           126.75      42.67       50.32       
H           132.44      47.54       53.84       
H           128.6       50.33       52.55       
H           131.28      44.7        51.18       
H           132.26      45.98       51.56       
H           130.94356   46.37652    50.47704    
H           130.15      45.7        54.75       
H           131.73      45.25       54.0        
H           130.28713   44.13139    53.75819    
H           122.73      46.99       50.8        
H           123.7       46.03       52.05       
H           123.81294   47.86218    52.04767    
H           125.38      48.89       49.67       
H           124.04      47.9        48.81       
H           125.76371   47.60621    48.52553    
H           133.39      50.05       54.97       
H           121.89      43.24       47.57       
S           130.65      51.95       53.63       
C           132.54      50.47       54.42       
C           132.14      51.79       54.46       
C           121.29      38.28       45.13       
C           120.65      39.54       45.37       
C           122.5       38.25       45.77       
N           119.43      39.92       44.93       
N           120.35      41.59       46.16       
O           119.23      41.18       45.4        
H           124.13      39.13       46.95       
H           123.18      37.38       45.65       
C           123.09      39.3        46.6        
C           121.22      40.57       46.22       
C           122.48      40.5        46.9        
C           117.32      23.84       38.2        
C           118.2       23.98       39.29       
S           116.43      25.3        37.91       
C           119.68      29.36       41.63       
C           118.57      29.32       40.74       
C           117.87      30.47       40.46       
C           118.26      31.66       40.99       
C           119.27      31.63       41.9        
C           120.02      30.53       42.27       
C           117.73      33.1        40.7        
C           118.68      33.87       41.66       
C           119.57      32.98       42.37       
C           120.18      28.0        41.92       
C           119.24      27.15       41.08       
C           118.34      27.99       40.32       
C           118.75      35.22       42.04       
C           119.77      35.7        42.91       
C           120.62      34.76       43.52       
C           120.51      33.39       43.3        
C           119.19      25.79       40.79       
C           118.31      25.27       39.81       
C           117.45      26.16       39.08       
C           117.42      27.53       39.35       
C           116.27      33.39       41.09       
C           117.97      33.53       39.3        
C           119.85      27.84       43.47       
C           121.69      27.83       41.61       
H           120.77      30.62       42.98       
H           116.92      30.41       39.94       
H           119.85      25.18       41.31       
H           116.75      28.21       38.8        
H           118.03      35.9        41.51       
H           121.18      32.7        43.75       
H           115.64      32.7        40.55       
H           115.96      34.44       40.85       
H           116.11864   33.1836     42.14952    
H           118.94      33.23       38.96       
H           118.03      34.56       39.47       
H           117.24784   33.22556    38.54244    
H           122.21      28.2        42.5        
H           121.94      26.73       41.54       
H           122.01655   28.38371    40.72974    
H           120.29      28.63       44.08       
H           118.75      28.01       43.68       
H           120.08095   26.89454    43.96077    
H           119.25      37.93       42.98       
H           118.8       23.16       39.54       
S           121.64      35.64       44.64       
C           119.88      37.08       43.38       
C           120.82      37.16       44.35       
C           117.05      20.47       35.37       
C           117.48      20.3        36.7        
C           116.65      21.69       35.1        
N           117.9       19.18       37.31       
N           117.99      20.88       38.85       
O           118.29      19.57       38.56       
H           116.47      23.75       35.7        
H           116.44      21.93       34.07       
C           116.66      22.78       36.08       
C           117.53      21.38       37.72       
C           117.09      22.69       37.36       
C           122.6       12.29       22.54       
C           122.84      11.89       23.83       
S           121.22      13.37       22.6        
C           119.42      13.41       28.71       
C           118.97      13.87       27.42       
C           118.12      14.92       27.3        
C           117.88      15.68       28.47       
C           118.2       15.19       29.72       
C           118.89      13.97       29.9        
C           116.89      16.86       28.6        
C           117.05      17.27       30.09       
C           117.73      16.22       30.73       
C           120.69      12.58       28.48       
C           120.77      12.43       26.94       
C           119.79      13.29       26.33       
C           116.68      18.38       30.77       
C           117.02      18.55       32.14       
C           117.57      17.45       32.77       
C           117.96      16.28       32.11       
C           121.74      11.87       26.13       
C           121.81      12.24       24.82       
C           120.9       13.12       24.27       
C           119.84      13.6        25.01       
C           115.5       16.39       28.17       
C           117.36      17.9        27.59       
C           120.7       11.27       29.29       
C           122.01      13.34       28.79       
H           119.21      13.66       30.92       
H           117.92      15.34       26.29       
H           122.52      11.13       26.55       
H           119.05      14.19       24.54       
H           116.26      19.23       30.16       
H           118.42      15.44       32.63       
H           115.14      16.8        27.23       
H           115.72      15.35       28.06       
H           114.84848   16.50455    29.03631    
H           117.61      17.46       26.57       
H           116.56      18.69       27.42       
H           118.28443   18.41357    27.85412    
H           122.81      12.62       28.64       
H           122.21      13.94       27.92       
H           122.03818   13.89646    29.72683    
H           121.15      11.54       30.29       
H           119.67      10.99       29.42       
H           121.19258   10.35836    28.95181    
H           116.09      20.46       32.56       
H           123.76      11.32       24.1        
S           117.86      17.85       34.45       
C           116.67      19.69       32.96       
C           117.19      19.53       34.25       
C           124.95      12.25       18.79       
C           125.6       11.93       19.97       
C           123.6       12.59       18.88       
N           126.79      11.49       20.18       
N           125.68      11.56       22.18       
O           126.82      11.37       21.48       
H           121.77      12.86       20.01       
H           123.07      12.89       18.02       
C           122.86      12.58       20.11       
C           124.85      11.98       21.23       
C           123.43      12.27       21.31       
C           130.59      11.03       3.35        
C           129.56      11.81       3.73        
S           131.34      10.38       4.81        
C           127.78      12.7        9.39        
C           128.89      11.82       9.29        
C           129.61      11.37       10.37       
C           129.17      11.74       11.63       
C           128.05      12.58       11.72       
C           127.4       13.21       10.65       
C           129.53      11.15       12.93       
C           128.61      11.94       13.84       
C           127.61      12.67       13.1        
C           127.11      12.99       8.08        
C           128.05      12.29       7.13        
C           129.07      11.56       7.85        
C           128.47      11.74       15.17       
C           127.29      12.14       15.79       
C           126.29      12.8        15.06       
C           126.44      13.16       13.71       
C           128.05      12.4        5.77        
C           129.15      11.75       5.14        
C           130.05      10.94       5.84        
C           130.01      10.82       7.22        
C           131.03      11.53       13.14       
C           129.23      9.58        13.02       
C           127.0       14.51       7.91        
C           125.69      12.25       7.97        
H           126.51      13.76       10.75       
H           130.55      10.75       10.32       
H           127.34      13.02       5.2         
H           130.89      10.34       7.78        
H           129.14      11.06       15.73       
H           125.65      13.67       13.12       
H           131.55      10.88       13.87       
H           131.64      11.4        12.18       
H           131.03      12.59268    13.38249    
H           130.01      8.99        12.6        
H           129.06      9.37        14.09       
H           128.31288   9.28851     12.50812    
H           124.79      12.84       8.16        
H           125.57      11.85       6.95        
H           125.66087   11.3907     8.63996     
H           126.52      14.99       8.85        
H           126.46      14.79       7.0         
H           127.99029   14.92146    7.71473     
H           127.65      11.26       17.79       
H           129.06      12.54       3.12        
S           124.98      13.16       16.18       
C           126.99      11.83       17.16       
C           125.68      12.26       17.49       
C           132.86      10.25       -0.43       
C           131.96      11.35       -0.36       
C           132.83      9.42        0.69        
N           131.7       12.25       -1.21       
N           130.69      12.89       0.7         
O           130.83      13.19       -0.65       
H           132.03      8.92        2.62        
H           133.23      8.37        0.74        
C           132.06      9.71        1.88        
C           131.33      11.71       0.89        
C           131.32      10.84       2.08        
C           147.38      8.92        -8.07       
C           146.64      10.09       -7.86       
S           146.41      7.54        -7.48       
C           140.99      10.38       -5.84       
C           141.6       9.07        -5.79       
C           140.76      7.94        -5.64       
C           139.44      8.14        -5.23       
C           138.92      9.45        -5.19       
C           139.7       10.56       -5.5        
C           138.42      7.16        -4.61       
C           137.33      8.05        -4.16       
C           137.62      9.37        -4.6        
C           141.95      11.46       -6.21       
C           143.22      10.66       -6.36       
C           143.02      9.22        -6.12       
C           136.27      7.8         -3.28       
C           135.4       8.83        -2.85       
C           135.67      10.11       -3.31       
C           136.69      10.36       -4.24       
C           144.47      10.99       -6.88       
C           145.4       9.95        -7.21       
C           145.19      8.61        -6.82       
C           143.96      8.25        -6.29       
C           139.1       6.41        -3.44       
C           137.93      6.1         -5.61       
C           141.96      12.51       -5.09       
C           141.56      12.03       -7.59       
H           139.3       11.56       -5.35       
H           141.09      6.95        -5.65       
H           144.71      11.99       -7.12       
H           143.62      7.2         -6.17       
H           136.11      6.8         -2.91       
H           136.87      11.41       -4.51       
H           139.95      5.89        -3.89       
H           138.51      5.64        -3.01       
H           139.53018   7.08079     -2.6963     
H           138.78      5.43        -5.87       
H           137.2       5.51        -5.08       
H           137.5877    6.43545     -6.58898    
H           140.88      12.82       -7.4        
H           142.48      12.44       -8.06       
H           141.12324   11.27625    -8.24513    
H           140.95      12.83       -4.92       
H           142.27      12.06       -4.09       
H           142.6704    13.31368    -5.28374    
H           134.08      7.86        -1.42       
H           146.99      11.05       -8.21       
S           134.51      11.26       -2.53       
C           134.4       8.82        -1.9        
C           133.8       10.01       -1.52       
C           150.87      8.49        -10.72      
C           150.25      7.37        -10.03      
C           150.37      9.66        -10.3       
N           150.58      6.07        -10.19      
N           148.78      6.21        -8.89       
O           149.66      5.4         -9.52       
H           149.07      10.83       -8.93       
H           150.81      10.55       -10.66      
C           149.31      9.79        -9.31       
C           149.1       7.46        -9.25       
C           148.59      8.72        -8.82       
C           161.47      6.17        -23.16      
C           160.24      5.54        -23.03      
S           161.81      7.09        -21.76      
C           156.67      5.94        -18.16      
C           157.83      6.68        -18.09      
C           158.03      7.57        -17.09      
C           157.08      7.79        -16.09      
C           155.82      7.02        -16.13      
C           155.66      6.02        -17.13      
C           156.96      8.97        -15.11      
C           155.6       8.71        -14.44      
C           155.04      7.51        -15.03      
C           156.52      5.18        -19.54      
C           157.88      5.48        -20.04      
C           158.57      6.43        -19.25      
C           154.98      9.3         -13.35      
C           153.75      8.76        -12.95      
C           153.19      7.58        -13.6       
C           153.86      6.98        -14.61      
C           158.49      5.14        -21.25      
C           159.61      5.82        -21.77      
C           160.26      6.71        -20.97      
C           159.79      6.99        -19.69      
C           157.02      10.32       -15.97      
C           158.1       8.87        -14.1       
C           155.44      5.9         -20.34      
C           156.09      3.67        -19.32      
H           154.79      5.39        -17.24      
H           158.95      8.07        -17.0       
H           158.09      4.3         -21.86      
H           160.39      7.63        -19.02      
H           155.47      10.1        -12.74      
H           153.5       6.09        -15.11      
H           158.07      10.37       -16.37      
H           156.37      10.32       -16.77      
H           156.8101    11.1946     -15.35428   
H           159.0       9.11        -14.72      
H           158.05      9.66        -13.34      
H           158.20427   7.90375     -13.60645   
H           155.06      3.7         -18.96      
H           156.13      3.04        -20.21      
H           156.73002   3.24089     -18.54906   
H           154.48      6.1         -19.93      
H           155.77      6.96        -20.52      
H           155.19255   5.46696     -21.30919   
H           153.15      10.14       -11.39      
H           159.94      4.73        -23.72      
S           151.7       7.04        -12.88      
C           152.9       9.25        -11.93      
C           151.93      8.31        -11.66      
C           164.39      5.76        -26.36      
C           164.19      7.04        -25.68      
C           163.73      4.7         -25.84      
N           164.64      8.18        -25.96      
N           163.33      8.42        -24.16      
O           164.15      9.08        -24.95      
H           162.28      3.91        -24.42      
H           164.03      3.68        -26.12      
C           162.78      4.84        -24.73      
C           163.35      7.14        -24.52      
C           162.47      6.06        -24.21      
C           168.45      4.08        -40.94      
C           168.23      2.96        -40.23      
S           169.31      5.27        -39.99      
C           169.23      2.64        -34.27      
C           169.79      3.75        -34.9       
C           169.96      4.93        -34.11      
C           169.54      4.97        -32.81      
C           168.91      3.87        -32.21      
C           168.93      2.66        -32.89      
C           169.53      6.21        -31.85      
C           168.69      5.61        -30.73      
C           168.21      4.34        -31.02      
C           169.03      1.51        -35.31      
C           169.17      2.28        -36.6       
C           169.66      3.64        -36.35      
C           168.16      6.32        -29.67      
C           167.11      5.69        -28.91      
C           166.57      4.48        -29.29      
C           167.15      3.79        -30.37      
C           168.82      1.96        -37.92      
C           168.82      2.97        -38.92      
C           169.41      4.24        -38.58      
C           169.8       4.64        -37.3       
C           168.66      7.32        -32.54      
C           170.9       6.77        -31.48      
C           167.61      0.97        -35.18      
C           170.05      0.38        -35.25      
H           168.46      1.78        -32.48      
H           170.48      5.8         -34.55      
H           168.27      1.01        -38.03      
H           170.03      5.7         -37.11      
H           168.44      7.36        -29.5       
H           166.85      2.7         -30.53      
H           168.48      8.14        -31.8       
H           169.26      7.78        -33.31      
H           167.75028   6.97519     -33.03154   
H           171.39      7.1         -32.41      
H           170.86      7.61        -30.79      
H           171.52927   6.00747     -31.021     
H           169.88      -0.05       -34.26      
H           169.87      -0.4        -35.99      
H           171.07589   0.7429      -35.31281   
H           167.51      0.45        -34.24      
H           167.28      0.3         -35.95      
H           166.86832   1.76873     -35.18713   
H           166.56      7.31        -27.51      
H           167.58      2.1         -40.53      
S           165.28      4.05        -28.25      
C           166.35      6.32        -27.89      
C           165.36      5.56        -27.44      
C           166.27      5.93        -44.39      
C           165.89      4.64        -43.76      
C           167.4       6.42        -43.81      
N           164.83      3.9         -44.04      
N           166.04      2.91        -42.44      
O           164.93      2.83        -43.23      
H           168.92      6.46        -42.26      
H           167.7       7.47        -44.08      
C           168.11      5.83        -42.68      
C           166.68      4.05        -42.75      
C           167.8       4.64        -42.11      
C           159.5       14.95       -56.67      
C           160.64      15.3        -55.98      
S           158.92      13.34       -56.05      
C           163.28      11.8        -51.72      
C           161.98      11.35       -52.14      
C           161.41      10.17       -51.76      
C           162.18      9.41        -50.87      
C           163.49      9.82        -50.46      
C           164.08      11.01       -50.92      
C           161.83      8.05        -50.19      
C           163.13      7.81        -49.41      
C           163.99      8.94        -49.4       
C           163.61      13.15       -52.37      
C           162.38      13.36       -53.25      
C           161.48      12.29       -53.13      
C           163.26      6.85        -48.43      
C           164.24      7.01        -47.41      
C           165.22      8.05        -47.6       
C           165.05      9.08        -48.53      
C           162.19      14.39       -54.16      
C           161.05      14.29       -55.01      
C           160.09      13.18       -54.79      
C           160.35      12.19       -53.87      
C           161.62      6.93        -51.35      
C           160.7       8.22        -49.14      
C           164.91      13.2        -53.28      
C           163.63      14.32       -51.39      
H           164.98      11.37       -50.39      
H           160.38      9.88        -52.13      
H           162.82      15.23       -54.24      
H           159.71      11.3        -53.78      
H           162.53      6.09        -48.3       
H           165.59      10.03       -48.54      
H           160.69      6.46        -51.09      
H           161.49      7.52        -52.23      
H           162.54401   6.38981     -51.55613   
H           159.79      8.16        -49.79      
H           160.7       7.48        -48.41      
H           160.67818   9.23083     -48.73276   
H           164.56      14.35       -50.88      
H           163.5       15.27       -51.94      
H           162.79619   14.24873    -50.69159   
H           165.83      13.02       -52.75      
H           164.92      14.27       -53.51      
H           164.85312   12.60278    -54.19005   
H           163.88      5.46        -45.84      
H           161.21      16.16       -56.17      
S           166.39      8.01        -46.3       
C           164.48      6.25        -46.21      
C           165.6       6.58        -45.55      
C           157.09      16.85       -59.76      
C           158.36      17.41       -59.37      
C           156.67      15.69       -59.18      
N           158.91      18.63       -59.6       
N           160.19      17.57       -58.07      
O           160.08      18.62       -58.91      
H           157.16      14.2        -57.79      
H           155.79      15.11       -59.54      
C           157.5       15.12       -58.22      
C           159.1       16.88       -58.29      
C           158.66      15.6        -57.73      
C           149.57      19.15       -74.22      
C           148.83      18.63       -73.18      
S           151.25      19.33       -73.87      
C           151.46      17.81       -67.7       
C           152.2       18.54       -68.64      
C           153.4       19.17       -68.36      
C           153.88      19.1        -67.09      
C           153.19      18.26       -66.13      
C           151.97      17.67       -66.42      
C           155.05      19.87       -66.39      
C           155.02      19.09       -64.99      
C           153.9       18.25       -64.88      
C           150.02      17.6        -68.22      
C           150.17      18.08       -69.69      
C           151.49      18.55       -69.93      
C           155.8       19.39       -63.9       
C           155.76      18.44       -62.85      
C           154.65      17.63       -62.73      
C           153.67      17.53       -63.74      
C           149.23      18.03       -70.69      
C           149.62      18.55       -71.97      
C           151.01      18.83       -72.19      
C           151.98      18.88       -71.2       
C           154.78      21.35       -66.2       
C           156.35      19.6        -67.06      
C           149.01      18.49       -67.55      
C           149.57      16.09       -68.2       
H           151.52      17.0        -65.75      
H           153.83      19.85       -69.03      
H           148.15      17.73       -70.42      
H           153.04      19.28       -71.4       
H           156.61      20.11       -63.89      
H           152.82      16.91       -63.75      
H           154.56      21.76       -67.25      
H           155.69      21.84       -65.8       
H           153.91801   21.65732    -65.60785   
H           156.52      18.55       -67.22      
H           157.22      20.02       -66.48      
H           156.44285   20.08569    -68.03138   
H           148.85      15.96       -67.38      
H           149.09      15.91       -69.17      
H           150.3472    15.32693    -68.15761   
H           148.77      18.26       -66.51      
H           148.11      18.37       -68.21      
H           149.32513   19.53343    -67.557     
H           157.59      18.77       -61.78      
H           147.75      18.47       -73.18      
S           154.72      16.65       -61.29      
C           156.67      18.28       -61.77      
C           156.26      17.37       -60.85      
C           148.65      20.93       -78.19      
C           147.61      20.4        -77.36      
C           149.84      20.47       -77.72      
N           146.28      20.33       -77.6       
N           146.71      19.44       -75.51      
O           145.82      19.79       -76.45      
H           151.21      19.81       -76.18      
H           150.74      20.72       -78.26      
C           150.12      19.84       -76.46      
C           147.87      19.7        -76.08      
C           149.2       19.55       -75.54      
C           147.63      31.65       -90.37      
C           148.73      31.38       -89.66      
S           146.24      31.2        -89.36      
C           148.8       28.24       -84.39      
C           147.49      28.39       -85.03      
C           146.34      27.7        -84.57      
C           146.48      26.72       -83.57      
C           147.81      26.58       -82.99      
C           148.9       27.4        -83.28      
C           145.6       25.59       -83.15      
C           146.44      24.79       -82.12      
C           147.76      25.4        -82.09      
C           149.89      28.89       -85.24      
C           149.07      29.36       -86.44      
C           147.7       29.29       -86.21      
C           146.26      23.57       -81.56      
C           147.33      23.02       -80.81      
C           148.6       23.67       -80.77      
C           148.89      24.81       -81.52      
C           149.47      30.11       -87.51      
C           148.55      30.66       -88.42      
C           147.18      30.49       -88.14      
C           146.69      29.89       -87.02      
C           145.34      24.63       -84.27      
C           144.22      26.06       -82.65      
C           150.95      27.89       -85.71      
C           150.47      30.15       -84.56      
H           149.88      27.38       -82.76      
H           145.34      27.77       -85.08      
H           150.52      30.37       -87.72      
H           145.59      29.82       -86.78      
H           145.32      23.1        -81.57      
H           149.88      25.25       -81.57      
H           144.64      23.85       -83.91      
H           144.88      25.07       -85.18      
H           146.20036   24.04671    -84.5981    
H           143.63      26.51       -83.48      
H           143.45      25.26       -82.43      
H           144.24111   26.81281    -81.86201   
H           151.52      30.27       -84.84      
H           150.12      31.12       -84.82      
H           150.47726   30.09195    -83.47157   
H           151.7       27.64       -84.9       
H           151.6       28.46       -86.42      
H           150.54702   26.9285     -86.02814   
H           146.52      21.19       -79.87      
H           149.76      31.52       -90.03      
S           149.71      22.89       -79.73      
C           147.4       21.8        -80.07      
C           148.47      21.72       -79.35      
C           147.39      34.14       -94.14      
C           146.48      33.05       -93.84      
C           148.2       34.34       -93.01      
N           145.47      32.61       -94.57      
N           145.6       31.33       -92.68      
O           144.98      31.51       -93.91      
H           149.0       33.85       -91.07      
H           148.92      35.16       -93.13      
C           148.28      33.55       -91.79      
C           146.59      32.23       -92.63      
C           147.57      32.42       -91.61      
H           132.83      52.59       54.81       
H           147.54      34.61       -95.12      
