612

C           122.97      41.61       3.61        
C           124.19      42.22       3.31        
S           122.78      41.23       5.39        
C           128.01      43.61       7.88        
C           126.99      42.69       8.24        
C           126.84      42.29       9.58        
C           127.73      42.73       10.54       
C           128.83      43.53       10.14       
C           128.99      43.99       8.87        
C           128.02      42.03       11.89       
C           129.3       42.76       12.27       
C           129.73      43.7        11.31       
C           128.02      43.86       6.37        
C           126.8       43.13       5.95        
C           126.18      42.52       7.05        
C           130.01      42.7        13.54       
C           131.1       43.54       13.74       
C           131.53      44.38       12.75       
C           130.89      44.49       11.49       
C           126.19      43.08       4.69        
C           124.91      42.5        4.52        
C           124.3       42.0        5.7         
C           124.9       42.05       6.89        
C           128.27      40.52       11.91       
C           126.89      42.39       12.89       
C           129.34      43.46       5.67        
C           127.8       45.39       6.2         
H           129.91      44.44       8.54        
H           126.04      41.63       9.73        
H           126.7       43.44       3.8         
H           124.35      41.59       7.7         
H           129.7       42.04       14.33       
H           131.21      45.21       10.74       
H           127.52      40.01       11.36       
H           128.19      40.02       12.93       
H           129.22708   40.21484    11.48694    
H           127.04      43.35       13.24       
H           126.85      41.65       13.72       
H           125.87576   42.459      12.49672    
H           128.68      45.94       6.61        
H           127.8       45.57       5.14        
H           126.82978   45.79663    6.48536     
H           130.18      43.78       6.27        
H           129.46      43.92       4.72        
H           129.55498   42.39228    5.627       
H           131.84      42.91       15.9        
H           124.47      42.55       2.39        
S           132.89      45.29       13.28       
C           131.95      43.58       14.96       
C           132.94      44.45       14.79       
C           119.66      39.88       1.28        
C           120.9       40.15       0.64        
C           119.55      40.41       2.53        
N           121.29      39.85       -0.55       
N           123.1       40.67       0.59        
O           122.57      40.18       -0.59       
H           120.43      41.47       4.24        
H           118.64      40.26       3.11        
C           120.63      40.99       3.29        
C           122.06      40.63       1.38        
C           121.92      41.07       2.76        
C           107.08      30.6        -4.29       
C           106.85      31.33       -3.17       
S           108.5       31.09       -5.26       
C           111.48      34.65       -0.81       
C           111.55      34.3        -2.18       
C           112.65      34.65       -2.92       
C           113.72      35.23       -2.32       
C           113.66      35.54       -0.95       
C           112.55      35.26       -0.16       
C           115.16      35.27       -2.85       
C           115.77      36.15       -1.81       
C           114.93      36.28       -0.66       
C           110.06      34.24       -0.24       
C           109.44      33.6        -1.53       
C           110.32      33.66       -2.64       
C           117.0       36.76       -1.71       
C           117.4       37.56       -0.65       
C           116.53      37.68       0.42        
C           115.34      37.0        0.48        
C           108.23      32.93       -1.6        
C           107.97      32.23       -2.79       
C           108.92      32.18       -3.91       
C           110.05      33.03       -3.87       
C           115.21      35.9        -4.2        
C           115.84      33.87       -2.76       
C           109.38      35.57       0.19        
C           110.09      33.19       0.88        
H           112.39      35.51       0.91        
H           112.7       34.42       -4.06       
H           107.52      32.87       -0.78       
H           110.62      33.19       -4.74       
H           117.74      36.62       -2.52       
H           114.62      37.15       1.23        
H           114.82      35.29       -4.98       
H           116.26      35.97       -4.43       
H           114.67014   36.84476    -4.26393    
H           115.86      33.52       -1.69       
H           116.88      33.98       -3.05       
H           115.35087   33.08314    -3.3342     
H           110.11      33.7        1.88        
H           109.15      32.63       0.84        
H           110.91956   32.49142    0.77085     
H           108.39      35.27       0.47        
H           109.79      36.01       1.11        
H           109.24045   36.30959    -0.59843    
H           119.31      38.41       -1.25       
H           105.99      31.17       -2.54       
S           117.21      38.66       1.68        
C           118.53      38.39       -0.48       
C           118.6       39.1        0.68        
C           104.33      27.49       -6.12       
C           103.84      28.51       -5.15       
C           105.65      27.6        -6.31       
N           102.7       28.62       -4.49       
N           104.0       30.27       -3.81       
O           102.79      29.72       -3.69       
H           107.58      28.42       -5.97       
H           106.07      26.95       -7.07       
C           106.56      28.56       -5.7        
C           104.73      29.51       -4.61       
C           106.15      29.58       -4.92       
C           96.08       13.52       -9.93       
C           95.61       14.39       -9.0        
S           97.62       13.97       -10.62      
C           98.78       19.31       -7.37       
C           99.27       18.75       -8.52       
C           100.3       19.27       -9.28       
C           100.97      20.36       -8.83       
C           100.49      20.96       -7.62       
C           99.4        20.46       -6.94       
C           101.97      21.25       -9.54       
C           102.18      22.32       -8.53       
C           101.28      22.19       -7.44       
C           97.65       18.45       -6.76       
C           97.4        17.51       -7.94       
C           98.45       17.57       -8.8        
C           103.03      23.36       -8.61       
C           103.02      24.27       -7.6        
C           102.11      24.19       -6.52       
C           101.27      23.11       -6.36       
C           96.35       16.59       -7.98       
C           96.48       15.51       -8.86       
C           97.61       15.48       -9.68       
C           98.53       16.53       -9.76       
C           101.32      21.82       -10.75      
C           103.35      20.62       -9.74       
C           96.39       19.26       -6.38       
C           98.13       17.58       -5.51       
H           99.03       21.06       -6.07       
H           100.7       18.67       -10.11      
H           95.6        16.66       -7.16       
H           99.13       16.64       -10.62      
H           103.71      23.47       -9.42       
H           100.53      23.13       -5.61       
H           100.98      21.03       -11.38      
H           100.45      22.45       -10.41      
H           101.91396   22.50272    -11.35762   
H           103.51      19.99       -10.59      
H           104.05      21.43       -9.94       
H           103.64283   19.98434    -8.90436    
H           97.22       17.13       -5.13       
H           98.71       16.8        -5.98       
H           98.67442    18.16024    -4.765      
H           95.76       18.58       -5.78       
H           96.66       20.03       -5.6        
H           95.87467    19.65532    -7.25536    
H           104.5       25.75       -8.36       
H           94.69       14.16       -8.35       
S           102.37      25.58       -5.48       
C           103.79      25.43       -7.62       
C           103.57      26.25       -6.57       
C           94.48       9.48        -10.41      
C           95.32       10.05       -11.43      
C           94.29       10.27       -9.31       
N           95.59       9.53        -12.65      
N           96.73       11.49       -12.36      
O           96.47       10.4        -13.21      
H           94.62       12.07       -8.31       
H           93.74       9.93        -8.43       
C           94.88       11.55       -9.23       
C           96.01       11.27       -11.26      
C           95.61       12.18       -10.2       
C           97.87       -5.63       -12.05      
C           97.94       -5.14       -10.75      
S           96.73       -4.83       -13.11      
C           94.78       -0.01       -9.62       
C           94.6        -0.62       -10.9       
C           94.18       0.1         -12.04      
C           93.84       1.39        -11.9       
C           93.89       2.01        -10.64      
C           94.3        1.3         -9.46       
C           93.28       2.43        -12.93      
C           93.38       3.75        -12.13      
C           93.59       3.41        -10.75      
C           95.7        -0.87       -8.8        
C           95.87       -2.14       -9.66       
C           95.31       -1.87       -10.9       
C           93.29       5.09        -12.53      
C           93.48       6.09        -11.53      
C           93.72       5.64        -10.18      
C           93.64       4.33        -9.77       
C           96.71       -3.24       -9.5        
C           96.97       -4.07       -10.57      
C           96.25       -3.85       -11.76      
C           95.4        -2.75       -11.95      
C           91.88       2.04        -13.42      
C           94.22       2.6         -14.13      
C           94.95       -1.33       -7.48       
C           97.06       -0.24       -8.51       
H           94.31       1.76        -8.5        
H           94.14       -0.4        -13.0       
H           97.17       -3.46       -8.55       
H           94.85       -2.64       -12.86      
H           92.98       5.36        -13.55      
H           93.91       4.03        -8.74       
H           91.89       2.08        -14.47      
H           91.57       1.08        -13.22      
H           91.07935    2.66193     -13.01968   
H           94.23       1.65        -14.69      
H           93.97       3.48        -14.77      
H           95.24801    2.78433     -13.81805   
H           97.08       0.35        -7.55       
H           97.75       -1.0        -8.35       
H           97.52206    0.31591     -9.32582    
H           94.66       -0.43       -6.95       
H           95.58       -1.78       -6.71       
H           94.13528    -2.04196    -7.61212    
H           93.28       7.95        -12.69      
H           98.71       -5.37       -10.01      
S           93.87       7.09        -9.22       
C           93.53       7.48        -11.74      
C           93.86       8.18        -10.61      
C           100.38      -8.45       -14.2       
C           100.92      -7.77       -13.03      
C           99.12       -8.2        -14.4       
N           102.1       -7.92       -12.41      
N           100.77      -6.38       -11.3       
O           101.99      -7.07       -11.36      
H           97.23       -7.3        -13.99      
H           98.57       -8.72       -15.17      
C           98.27       -7.31       -13.69      
C           100.06      -6.88       -12.25      
C           98.7        -6.55       -12.68      
C           103.44      -18.44      -26.92      
C           102.79      -18.83      -25.81      
S           104.15      -16.88      -26.64      
C           101.93      -15.48      -20.85      
C           102.86      -14.97      -21.8       
C           103.48      -13.69      -21.59      
C           103.26      -13.04      -20.41      
C           102.42      -13.57      -19.51      
C           101.79      -14.81      -19.62      
C           103.83      -11.66      -20.04      
C           103.15      -11.53      -18.68      
C           102.35      -12.6       -18.42      
C           101.37      -16.81      -21.33      
C           102.18      -17.03      -22.63      
C           102.98      -15.93      -22.89      
C           103.16      -10.46      -17.85      
C           102.42      -10.44      -16.68      
C           101.58      -11.51      -16.42      
C           101.43      -12.56      -17.36      
C           102.04      -18.0       -23.57      
C           102.79      -17.87      -24.77      
C           103.52      -16.73      -25.06      
C           103.7       -15.76      -24.11      
C           103.23      -10.51      -20.93      
C           105.37      -11.62      -20.0       
C           99.78       -16.72      -21.58      
C           101.67      -18.03      -20.32      
H           101.06      -15.1       -18.83      
H           104.2       -13.22      -22.35      
H           101.53      -18.9       -23.45      
H           104.29      -14.82      -24.38      
H           103.7       -9.63       -18.16      
H           100.64      -13.39      -17.23      
H           103.6       -10.71      -21.92      
H           103.68      -9.64       -20.62      
H           102.14769   -10.38815   -20.97301   
H           105.8       -12.24      -20.74      
H           105.73      -10.59      -20.26      
H           105.75887   -11.83149   -19.00393   
H           101.18      -17.79      -19.33      
H           101.06      -18.87      -20.66      
H           102.71299   -18.33764   -20.24496   
H           99.31       -17.57      -22.1       
H           99.39       -17.01      -20.58      
H           99.47352    -15.70076   -21.81521   
H           102.65      -8.38       -15.91      
H           102.27      -19.78      -25.86      
S           100.42      -11.13      -15.11      
C           102.16      -9.34       -15.8       
C           101.07      -9.46       -15.01      
C           103.91      -19.94      -31.05      
C           102.73      -20.16      -30.36      
C           104.91      -19.35      -30.29      
N           101.58      -20.69      -30.78      
N           101.31      -20.0       -28.57      
O           100.78      -20.68      -29.68      
H           105.71      -18.41      -28.55      
H           105.8       -19.07      -30.84      
C           104.83      -18.88      -28.9       
C           102.56      -19.69      -28.97      
C           103.63      -18.99      -28.27      
C           110.58      -15.41      -44.42      
C           111.13      -16.47      -43.84      
S           108.79      -15.44      -44.32      
C           108.08      -19.69      -39.64      
C           107.36      -18.73      -40.35      
C           106.08      -18.37      -39.99      
C           105.45      -19.12      -38.97      
C           106.2       -20.04      -38.21      
C           107.53      -20.32      -38.52      
C           103.99      -18.91      -38.4       
C           104.08      -19.86      -37.17      
C           105.39      -20.45      -37.09      
C           109.55      -19.72      -40.12      
C           109.49      -18.86      -41.38      
C           108.21      -18.23      -41.43      
C           103.31      -19.71      -36.03      
C           103.8       -20.04      -34.75      
C           105.04      -20.61      -34.75      
C           105.74      -21.03      -35.92      
C           110.51      -18.38      -42.18      
C           110.25      -17.28      -43.05      
C           108.98      -16.72      -43.14      
C           107.9       -17.25      -42.38      
C           102.93      -19.3       -39.42      
C           103.71      -17.45      -37.91      
C           110.03      -21.21      -40.44      
C           110.44      -18.97      -39.05      
H           108.14      -21.04      -37.91      
H           105.47      -17.68      -40.58      
H           111.51      -18.77      -41.95      
H           106.95      -16.72      -42.37      
H           102.29      -19.33      -36.03      
H           106.71      -21.51      -35.86      
H           102.2       -18.53      -39.49      
H           103.2       -19.22      -40.5       
H           102.47937   -20.27993   -39.26264   
H           103.58      -16.67      -38.69      
H           102.79      -17.46      -37.3       
H           104.50949   -17.07377   -37.27175   
H           111.31      -18.51      -39.55      
H           110.03      -18.14      -38.49      
H           110.89286   -19.6287    -38.30896   
H           111.1       -21.28      -40.22      
H           109.59      -21.86      -39.66      
H           109.75244   -21.58251   -41.42605   
H           102.36      -19.21      -33.17      
H           112.24      -16.68      -43.95      
S           105.62      -20.86      -33.12      
C           103.28      -19.72      -33.43      
C           104.1       -20.15      -32.47      
C           112.32      -11.59      -45.7       
C           113.11      -12.73      -45.39      
C           111.0       -11.88      -45.67      
N           114.43      -12.89      -45.38      
N           113.51      -14.83      -44.84      
O           114.71      -14.22      -45.17      
H           109.37      -13.22      -45.38      
H           110.24      -11.05      -45.86      
C           110.46      -13.16      -45.44      
C           112.55      -14.01      -45.06      
C           111.15      -14.23      -45.01      
C           115.75      4.55        -47.37      
C           114.58      3.97        -47.7       
S           116.91      3.4         -46.72      
C           113.52      -1.94       -47.6       
C           114.84      -1.58       -47.21      
C           115.78      -2.51       -46.66      
C           115.22      -3.8        -46.45      
C           113.96      -4.18       -46.86      
C           113.12      -3.26       -47.47      
C           116.0       -4.9        -45.67      
C           114.95      -6.02       -45.83      
C           113.8       -5.61       -46.63      
C           112.69      -0.71       -48.2       
C           113.79      0.35        -48.03      
C           114.97      -0.17       -47.4       
C           115.1       -7.4        -45.6       
C           114.03      -8.26       -45.84      
C           112.89      -7.77       -46.44      
C           112.73      -6.46       -46.9       
C           113.65      1.69        -48.21      
C           114.65      2.59        -47.81      
C           115.88      2.08        -47.34      
C           116.03      0.67        -47.1       
C           116.2       -4.47       -44.22      
C           117.28      -5.31       -46.38      
C           111.42      -0.46       -47.34      
C           112.35      -1.01       -49.73      
H           112.15      -3.59       -47.75      
H           116.81      -2.3        -46.58      
H           112.74      2.11        -48.67      
H           116.91      0.37        -46.52      
H           115.85      -7.72       -44.86      
H           111.84      -6.21       -47.45      
H           117.06      -4.87       -43.7       
H           116.52      -3.4        -44.18      
H           115.29762   -4.70823    -43.65692   
H           117.97      -4.49       -46.41      
H           117.81      -6.17       -45.92      
H           117.01894   -5.48175    -47.42425   
H           111.46      -1.6        -49.81      
H           112.03      -0.08       -50.18      
H           113.17591   -1.47992    -50.26399   
H           110.72      -1.24       -47.38      
H           111.07      0.42        -47.75      
H           111.7298    -0.26035    -46.3142    
H           114.76      -10.27      -45.11      
H           113.73      4.57        -47.94      
S           111.72      -9.08       -46.57      
C           113.97      -9.64       -45.5       
C           112.82      -10.25      -45.88      
C           116.96      8.74        -47.02      
C           115.6       8.31        -46.86      
C           117.76      7.64        -47.17      
N           114.57      9.08        -46.72      
N           113.85      7.02        -46.81      
O           113.47      8.35        -46.64      
H           118.17      5.51        -47.49      
H           118.83      7.89        -47.41      
C           117.39      6.28        -47.26      
C           115.17      6.97        -46.92      
C           116.11      5.91        -47.11      
C           127.35      20.9        -43.55      
C           126.46      20.48       -42.57      
S           126.56      20.78       -45.09      
C           121.58      17.09       -44.01      
C           122.21      17.69       -45.12      
C           121.98      17.17       -46.4       
C           121.16      16.03       -46.54      
C           120.48      15.53       -45.44      
C           120.69      16.01       -44.12      
C           121.23      14.97       -47.61      
C           120.21      13.95       -47.11      
C           119.68      14.34       -45.84      
C           122.08      17.66       -42.67      
C           123.14      18.68       -43.14      
C           123.16      18.7        -44.6       
C           119.85      12.78       -47.72      
C           118.98      11.94       -47.15      
C           118.35      12.34       -45.94      
C           118.81      13.45       -45.21      
C           124.06      19.41       -42.38      
C           125.11      20.09       -43.07      
C           125.13      20.04       -44.49      
C           124.12      19.44       -45.25      
C           122.62      14.32       -47.64      
C           120.86      15.59       -48.97      
C           122.81      16.5        -41.91      
C           121.06      18.29       -41.69      
H           120.4       15.44       -43.2       
H           122.65      17.59       -47.15      
H           124.19      19.26       -41.34      
H           124.14      19.62       -46.32      
H           120.13      12.58       -48.79      
H           118.38      13.61       -44.23      
H           122.66      13.61       -48.42      
H           123.39      15.08       -48.05      
H           122.97698   13.86503    -46.71606   
H           121.28      16.59       -48.99      
H           121.35      15.16       -49.79      
H           119.79799   15.65458    -49.2068    
H           120.54      17.57       -41.0       
H           121.57      19.06       -41.1       
H           120.26327   18.83947    -42.19139   
H           122.01      15.87       -41.51      
H           123.25      16.98       -41.06      
H           123.54022   15.95418    -42.50745   
H           118.88      10.23       -48.57      
H           126.73      20.48       -41.51      
S           117.26      11.03       -45.42      
C           118.51      10.65       -47.62      
C           117.53      10.09       -46.88      
C           131.42      22.52       -43.48      
C           130.61      22.51       -42.27      
C           130.76      22.09       -44.62      
N           130.95      22.97       -41.04      
N           128.74      22.28       -41.11      
O           129.79      22.81       -40.36      
H           129.03      21.37       -45.51      
H           131.27      22.01       -45.59      
C           129.43      21.63       -44.57      
C           129.26      22.0        -42.28      
C           128.64      21.49       -43.47      
C           145.38      30.59       -47.34      
C           144.61      29.86       -48.22      
S           144.62      30.51       -45.78      
C           140.17      26.08       -46.52      
C           140.63      26.9        -45.46      
C           140.2       26.81       -44.16      
C           139.13      26.03       -43.94      
C           138.53      25.22       -44.99      
C           139.18      25.15       -46.28      
C           138.18      26.06       -42.66      
C           137.04      25.14       -43.17      
C           137.25      24.69       -44.53      
C           141.07      26.2        -47.77      
C           141.85      27.49       -47.44      
C           141.75      27.66       -46.07      
C           135.9       24.81       -42.46      
C           134.93      23.96       -43.05      
C           135.09      23.54       -44.39      
C           136.23      23.92       -45.16      
C           142.62      28.31       -48.24      
C           143.57      29.15       -47.61      
C           143.49      29.35       -46.26      
C           142.59      28.63       -45.46      
C           137.69      27.5        -42.33      
C           138.89      25.39       -41.42      
C           140.3       26.35       -49.07      
C           142.17      25.12       -47.86      
H           138.72      24.63       -47.07      
H           140.67      27.35       -43.32      
H           142.7       28.13       -49.32      
H           142.66      28.69       -44.34      
H           135.78      25.18       -41.41      
H           136.33      23.66       -46.22      
H           138.45      28.13       -41.79      
H           136.93      27.31       -41.54      
H           137.29025   28.08535    -43.15805   
H           139.09      24.29       -41.67      
H           138.16      25.46       -40.63      
H           139.82824   25.80621    -41.05317   
H           141.84      24.37       -48.58      
H           143.08      25.58       -48.15      
H           142.33696   24.5175     -46.96713   
H           140.06      25.32       -49.33      
H           140.91      26.76       -49.88      
H           139.38876   26.9388     -48.96486   
H           133.14      23.95       -41.74      
H           144.88      29.73       -49.26      
S           133.76      22.61       -44.97      
C           133.57      23.65       -42.68      
C           132.8       23.0        -43.57      
C           149.26      32.43       -48.3       
C           148.54      32.78       -47.03      
C           148.55      31.62       -49.08      
N           148.92      33.57       -46.0       
N           146.92      32.63       -45.54      
O           147.91      33.38       -45.09      
H           146.92      30.32       -49.48      
H           148.91      31.26       -50.03      
C           147.29      31.03       -48.75      
C           147.3       32.2        -46.71      
C           146.65      31.29       -47.61      
C           162.34      38.3        -56.55      
C           161.72      37.07       -56.74      
S           161.86      38.86       -54.96      
C           157.35      34.69       -53.17      
C           157.96      35.85       -52.61      
C           157.55      36.42       -51.4       
C           156.45      35.82       -50.8       
C           155.79      34.67       -51.39      
C           156.24      34.08       -52.57      
C           155.81      36.14       -49.48      
C           154.69      35.09       -49.37      
C           154.72      34.26       -50.54      
C           158.1       34.13       -54.38      
C           159.0       35.38       -54.7       
C           158.99      36.29       -53.57      
C           153.69      34.99       -48.4       
C           152.65      34.09       -48.7       
C           152.72      33.3        -49.82      
C           153.75      33.3        -50.7       
C           159.89      35.52       -55.79      
C           160.73      36.64       -55.78      
C           160.7       37.56       -54.73      
C           159.84      37.41       -53.54      
C           155.25      37.58       -49.43      
C           156.79      35.93       -48.33      
C           157.23      33.75       -55.62      
C           158.95      32.83       -53.95      
H           155.8       33.21       -53.01      
H           158.06      37.26       -50.9       
H           159.95      34.87       -56.64      
H           159.91      38.06       -52.67      
H           153.65      35.62       -47.51      
H           153.83      32.64       -51.51      
H           154.98      37.9        -48.43      
H           155.88      38.33       -49.84      
H           154.32795   37.74514    -49.98736   
H           157.76      36.26       -48.76      
H           156.45      36.47       -47.48      
H           156.92395   34.89369    -48.01981   
H           158.29      31.85       -53.88      
H           159.78      32.6        -54.66      
H           159.54455   33.02818    -53.05818   
H           156.45      32.98       -55.51      
H           158.0       33.3        -56.15      
H           156.79463   34.60623    -56.13519   
H           151.11      34.31       -47.07      
H           161.8       36.48       -57.71      
S           151.32      32.28       -50.05      
C           151.41      33.81       -47.99      
C           150.59      32.9        -48.62      
C           165.56      40.3        -58.89      
C           164.67      39.3        -59.45      
C           165.15      40.62       -57.6       
N           164.65      38.85       -60.74      
N           162.95      37.85       -59.52      
O           163.53      37.96       -60.72      
H           163.88      40.42       -55.89      
H           165.67      41.39       -56.97      
C           163.99      40.07       -56.92      
C           163.57      38.68       -58.68      
C           163.25      39.06       -57.37      
H           133.78      44.41       15.46       
H           166.48      40.65       -59.28      
