612

C           171.51      43.3        33.19       
C           172.34      44.19       32.66       
S           172.11      42.85       34.77       
C           178.1       44.65       34.77       
C           177.25      43.9        35.55       
C           177.78      43.05       36.56       
C           179.17      43.02       36.84       
C           180.03      43.82       36.0        
C           179.51      44.67       35.0        
C           179.98      42.28       37.92       
C           181.43      42.57       37.45       
C           181.42      43.53       36.37       
C           177.32      45.31       33.61       
C           175.89      44.83       33.85       
C           175.87      43.98       35.04       
C           182.62      42.18       38.0        
C           183.85      42.57       37.41       
C           183.82      43.58       36.4        
C           182.63      44.11       35.89       
C           174.78      45.07       33.04       
C           173.63      44.35       33.34       
C           173.63      43.62       34.51       
C           174.67      43.42       35.43       
C           179.61      40.79       37.82       
C           179.75      42.81       39.37       
C           177.81      44.88       32.17       
C           177.56      46.86       33.68       
H           180.2       45.35       34.47       
H           177.15      42.39       37.14       
H           174.85      45.54       32.01       
H           174.63      42.76       36.29       
H           182.67      41.34       38.69       
H           182.57      44.86       35.14       
H           178.55      40.6        37.99       
H           180.19      40.34       38.6        
H           179.87629   40.27181    36.89877    
H           180.02      43.9        39.23       
H           180.54      42.36       39.96       
H           178.71652   42.84665    39.71449    
H           178.58      47.1        33.37       
H           176.96      47.3        32.94       
H           177.33969   47.35203    34.62735    
H           178.94      44.89       32.26       
H           177.48      45.71       31.57       
H           177.46728   43.88755    31.87726    
H           185.55      41.29       38.35       
H           172.09      44.76       31.76       
S           185.44      43.96       35.95       
C           185.2       42.05       37.69       
C           186.15      42.82       37.11       
C           167.46      41.71       31.96       
C           168.15      42.78       31.29       
C           168.24      41.27       33.0        
N           167.76      43.4        30.18       
N           169.85      44.13       30.69       
O           168.83      44.13       29.79       
H           169.95      41.29       34.25       
H           167.84      40.42       33.58       
C           169.5       41.8        33.39       
C           169.45      43.31       31.66       
C           170.17      42.79       32.77       
C           151.62      38.41       28.3        
C           152.17      39.64       28.27       
S           152.69      37.25       29.06       
C           158.06      40.69       29.6        
C           157.53      39.39       29.95       
C           158.33      38.46       30.55       
C           159.6       38.89       30.95       
C           160.09      40.17       30.58       
C           159.34      41.12       29.9        
C           160.77      38.03       31.47       
C           161.94      39.02       31.49       
C           161.51      40.22       30.96       
C           157.0       41.48       28.9        
C           155.78      40.52       28.92       
C           156.16      39.26       29.45       
C           163.24      38.84       31.96       
C           164.2       39.87       31.72       
C           163.78      41.09       31.02       
C           162.43      41.22       30.62       
C           154.54      40.72       28.39       
C           153.61      39.68       28.51       
C           154.02      38.42       29.04       
C           155.32      38.16       29.57       
C           160.9       36.86       30.5        
C           160.6       37.48       32.9        
C           157.54      41.88       27.47       
C           156.53      42.77       29.67       
H           159.74      42.1        29.6        
H           157.93      37.46       30.74       
H           154.21      41.74       28.04       
H           155.59      37.23       30.03       
H           163.5       37.89       32.41       
H           162.2       42.1        30.07       
H           160.08      36.22       30.6        
H           161.7       36.22       30.88       
H           160.95556   37.09615    29.43734    
H           160.72      38.31       33.58       
H           161.37      36.75       33.15       
H           159.59163   37.20233    33.2069     
H           157.37      43.37       29.64       
H           155.82      43.36       29.09       
H           156.2154    42.61954    30.70271    
H           156.94      42.64       26.94       
H           158.4       42.51       27.76       
H           157.81999   41.01131    26.87412    
H           166.16      39.22       32.63       
H           151.56      40.5        27.95       
S           165.08      42.19       30.79       
C           165.6       39.99       32.13       
C           166.19      41.15       31.66       
C           147.49      37.08       27.39       
C           147.83      38.37       27.71       
C           148.54      36.25       27.54       
N           147.05      39.42       27.68       
N           149.05      40.18       28.36       
O           147.76      40.53       28.11       
H           150.66      35.86       27.77       
H           148.41      35.21       27.12       
C           149.87      36.66       27.83       
C           149.1       38.89       28.11       
C           150.23      37.94       28.11       
C           134.34      28.72       21.69       
C           135.1       28.27       22.7        
S           134.58      30.4        21.24       
C           139.78      31.8        24.59       
C           138.94      32.42       23.71       
C           139.24      33.73       23.27       
C           140.36      34.39       23.78       
C           141.24      33.66       24.59       
C           140.96      32.32       24.98       
C           140.88      35.89       23.79       
C           142.15      35.81       24.66       
C           142.28      34.53       25.09       
C           139.28      30.4        25.04       
C           138.0       30.29       24.17       
C           137.84      31.49       23.42       
C           143.0       36.8        25.02       
C           144.15      36.41       25.78       
C           144.29      35.12       26.31       
C           143.32      34.18       26.0        
C           137.12      29.22       24.05       
C           136.11      29.29       23.07       
C           136.03      30.47       22.3        
C           136.9       31.57       22.48       
C           139.94      36.95       24.43       
C           141.39      36.32       22.42       
C           139.01      30.38       26.57       
C           140.04      29.12       24.68       
H           141.38      31.93       25.83       
H           138.64      34.26       22.61       
H           137.2       28.34       24.58       
H           136.74      32.44       21.88       
H           142.89      37.8        24.65       
H           143.31      33.15       26.41       
H           140.21      38.02       24.32       
H           139.09      37.09       23.82       
H           139.6461    36.6561     25.43765    
H           140.48      36.69       22.02       
H           142.08      37.14       22.59       
H           141.86318   35.57544    21.77982    
H           139.63      28.21       25.13       
H           140.05      28.95       23.62       
H           141.05063   29.28255    25.05457    
H           138.94      29.33       26.9        
H           139.77      30.86       27.16       
H           138.05779   30.83178    26.84802    
H           145.35      38.24       25.93       
H           135.03      27.29       23.12       
S           145.76      34.97       27.31       
C           145.22      37.23       26.2        
C           146.2       36.62       26.88       
C           131.73      26.59       18.8        
C           132.45      25.9        19.79       
C           131.89      27.97       18.86       
N           132.59      24.58       19.94       
N           133.89      25.62       21.5        
O           133.55      24.45       20.9        
H           132.76      29.75       19.74       
H           131.3       28.53       18.12       
C           132.64      28.67       19.85       
C           133.35      26.55       20.76       
C           133.48      27.99       20.77       
C           121.79      19.48       7.97        
C           121.98      20.84       7.87        
S           122.1       18.96       9.6         
C           124.83      24.06       12.02       
C           124.3       22.91       12.46       
C           124.68      22.33       13.68       
C           125.74      22.85       14.38       
C           126.33      24.01       13.89       
C           125.84      24.71       12.77       
C           126.46      22.17       15.55       
C           127.53      23.22       15.79       
C           127.45      24.28       14.83       
C           124.18      24.58       10.72       
C           123.36      23.3        10.39       
C           123.36      22.39       11.48       
C           128.39      23.32       16.89       
C           129.26      24.41       16.94       
C           129.22      25.4        15.97       
C           128.41      25.35       14.8        
C           122.9       22.84       9.15        
C           122.45      21.5        9.04        
C           122.61      20.57       10.14       
C           123.07      21.04       11.37       
C           127.01      20.8        15.06       
C           125.56      22.01       16.76       
C           125.2       24.94       9.6         
C           123.3       25.81       11.01       
H           126.4       25.61       12.4        
H           124.38      21.37       13.91       
H           122.78      23.55       8.36        
H           123.25      20.35       12.18       
H           128.27      22.63       17.75       
H           128.4       26.08       13.96       
H           126.06      20.2        14.97       
H           127.58      20.91       14.09       
H           127.70123   20.38821    15.79535    
H           124.88      21.16       16.56       
H           126.08      21.73       17.72       
H           124.99204   22.90454    17.01558    
H           123.17      26.51       10.16       
H           122.28      25.5        11.1        
H           123.46762   26.41065    11.90399    
H           125.77      25.88       9.91        
H           124.72      25.21       8.64        
H           125.92378   24.13107    9.50066     
H           130.3       24.07       18.82       
H           121.91      21.36       6.89        
S           130.36      26.64       16.38       
C           130.14      24.75       17.99       
C           130.76      25.91       17.85       
C           120.37      16.5        4.98        
C           120.86      17.81       4.56        
C           120.49      16.32       6.29        
N           121.11      18.34       3.34        
N           121.6       19.89       4.91        
O           121.52      19.6        3.55        
H           121.08      16.94       8.37        
H           120.12      15.33       6.59        
C           120.95      17.26       7.3         
C           121.29      18.82       5.54        
C           121.37      18.53       6.96        
C           111.53      8.4         -6.14       
C           111.57      7.87        -4.83       
S           113.06      9.21        -6.44       
C           115.52      10.05       -0.63       
C           115.7       10.39       -1.97       
C           116.72      11.29       -2.31       
C           117.43      11.92       -1.3        
C           117.15      11.62       0.02        
C           116.24      10.65       0.43        
C           118.73      12.65       -1.45       
C           118.86      13.19       0.06        
C           117.94      12.52       0.89        
C           114.3       9.07        -0.43       
C           113.9       8.98        -1.96       
C           114.79      9.65        -2.81       
C           119.75      14.1        0.53        
C           119.73      14.36       1.91        
C           118.79      13.66       2.8         
C           117.97      12.6        2.32        
C           112.83      8.26        -2.57       
C           112.63      8.39        -3.97       
C           113.51      9.16        -4.73       
C           114.68      9.68        -4.11       
C           118.65      13.82       -2.39       
C           119.9       11.65       -1.79       
C           113.17      9.77        0.41        
C           114.69      7.64        0.2         
H           116.11      10.3        1.46        
H           116.94      11.53       -3.33       
H           112.15      7.67        -1.98       
H           115.49      10.12       -4.7        
H           120.44      14.64       -0.06       
H           117.44      11.85       3.05        
H           118.38      13.47       -3.36       
H           119.57      14.29       -2.38       
H           117.89341   14.54156    -2.08176    
H           119.52      11.11       -2.62       
H           120.81      12.19       -2.11       
H           120.09887   10.93976    -0.98743    
H           114.38      7.69        1.23        
H           114.27      6.84        -0.46       
H           115.75439   7.40891     0.15798     
H           112.57      8.99        0.91        
H           113.5       10.36       1.3         
H           112.48502   10.40451    -0.15241    
H           121.05      16.02       2.14        
H           110.77      7.19        -4.45       
S           118.87      14.31       4.44        
C           120.49      15.33       2.69        
C           120.09      15.47       4.03        
C           109.07      8.01        -9.73       
C           109.48      9.29        -9.23       
C           109.47      6.96        -9.03       
N           109.14      10.45       -9.61       
N           110.42      10.65       -7.78       
O           109.72      11.33       -8.72       
H           110.59      6.16        -7.39       
H           109.19      6.01        -9.34       
C           110.21      7.07        -7.84       
C           110.3       9.4         -8.07       
C           110.66      8.29        -7.29       
C           101.15      4.18        -23.59      
C           102.07      3.38        -23.02      
S           100.76      5.49        -22.51      
C           105.25      5.27        -18.12      
C           104.26      6.15        -18.57      
C           104.06      7.36        -17.89      
C           104.72      7.59        -16.68      
C           105.57      6.57        -16.16      
C           105.84      5.42        -16.88      
C           104.72      8.82        -15.86      
C           105.5       8.27        -14.64      
C           106.04      6.99        -14.88      
C           105.3       3.99        -18.93      
C           104.25      4.3         -19.95      
C           103.7       5.57        -19.79      
C           105.78      8.89        -13.41      
C           106.77      8.24        -12.6       
C           107.16      6.96        -12.91      
C           106.74      6.3         -14.01      
C           103.83      3.54        -21.03      
C           102.77      4.02        -21.91      
C           102.25      5.31        -21.62      
C           102.76      6.11        -20.63      
C           103.25      9.28        -15.4       
C           105.53      10.01       -16.41      
C           104.9       2.76        -18.12      
C           106.71      3.81        -19.55      
H           106.63      4.71        -16.54      
H           103.44      8.11        -18.34      
H           104.12      2.49        -21.04      
H           102.31      7.11        -20.48      
H           105.22      9.8         -13.0       
H           107.13      5.33        -14.29      
H           103.32      10.33       -15.06      
H           102.75      9.41        -16.32      
H           102.76973   8.66874     -14.63593   
H           104.97      10.37       -17.27      
H           105.65      10.78       -15.67      
H           106.51325   9.66379     -16.72852   
H           107.44      3.66        -18.74      
H           106.69      2.93        -20.17      
H           106.99858   4.61499     -20.22588   
H           105.2       1.98        -18.85      
H           105.58      2.51        -17.26      
H           103.8563    2.66707     -17.81976   
H           107.05      9.73        -10.91      
H           102.36      2.45        -23.51      
S           108.3       6.47        -11.71      
C           107.3       8.73        -11.4       
C           108.08      7.87        -10.77      
C           98.72       3.07        -26.99      
C           99.08       4.44        -26.7       
C           99.17       2.16        -26.03      
N           98.71       5.58        -27.36      
N           99.95       6.13        -25.6       
O           99.39       6.62        -26.75      
H           100.23      1.86        -24.11      
H           98.95       1.17        -26.1       
C           99.94       2.59        -24.88      
C           99.84       4.83        -25.57      
C           100.28      3.86        -24.7       
C           99.95       -4.02       -41.25      
C           99.56       -4.56       -40.1       
S           99.81       -2.23       -41.17      
C           97.35       -1.58       -35.26      
C           97.78       -0.72       -36.29      
C           97.92       0.67        -36.09      
C           97.62       1.15        -34.78      
C           97.23       0.22        -33.78      
C           97.03       -1.1        -34.03      
C           97.64       2.57        -34.31      
C           97.36       2.34        -32.81      
C           97.19       0.98        -32.47      
C           97.54       -3.07       -35.73      
C           97.99       -2.87       -37.2       
C           98.2        -1.48       -37.49      
C           97.47       3.2         -31.75      
C           97.5        2.69        -30.46      
C           97.42       1.31        -30.13      
C           97.17       0.43        -31.14      
C           98.34       -3.88       -38.0       
C           99.04       -3.62       -39.15      
C           99.12       -2.27       -39.58      
C           98.89       -1.18       -38.73      
C           96.63       3.53        -34.98      
C           99.1        3.15        -34.43      
C           96.24       -3.85       -35.89      
C           98.62       -3.85       -34.88      
H           96.53       -1.71       -33.23      
H           98.44       1.31        -36.79      
H           98.04       -4.92       -37.8       
H           99.14       -0.21       -39.09      
H           97.65       4.23        -31.97      
H           97.1        -0.64       -30.99      
H           97.14       4.46        -35.13      
H           96.61       3.14        -36.03      
H           95.6652     3.67508     -34.49398   
H           99.12       3.41        -35.53      
H           99.14       3.97        -33.76      
H           99.8847     2.4093      -34.27599   
H           98.27       -3.87       -33.81      
H           98.62       -4.91       -35.23      
H           99.57961    -3.33385    -34.90908   
H           95.84       -4.01       -34.9       
H           96.32       -4.81       -36.39      
H           95.4843     -3.34849    -36.49456   
H           97.85       4.45        -29.27      
H           99.65       -5.64       -39.93      
S           97.69       0.93        -28.39      
C           97.78       3.39        -29.26      
C           98.02       2.61        -28.15      
C           102.26      -5.55       -44.71      
C           101.77      -6.36       -43.65      
C           101.9       -4.28       -44.55      
N           101.72      -7.7        -43.54      
N           100.74      -6.77       -41.72      
O           101.23      -7.92       -42.24      
H           101.09      -2.64       -43.42      
H           102.31      -3.51       -45.2       
C           101.1       -3.72       -43.47      
C           101.05      -5.84       -42.61      
C           100.6       -4.52       -42.44      
C           115.64      -9.61       -53.75      
C           115.39      -8.39       -53.3       
S           114.17      -10.59      -53.52      
C           110.29      -6.8        -50.26      
C           110.26      -8.11       -50.74      
C           109.25      -8.99       -50.51      
C           108.25      -8.52       -49.68      
C           108.19      -7.2        -49.16      
C           109.24      -6.33       -49.48      
C           107.1       -9.38       -49.17      
C           106.28      -8.36       -48.36      
C           106.96      -7.11       -48.42      
C           111.61      -6.11       -50.52      
C           112.34      -7.19       -51.38      
C           111.57      -8.36       -51.4       
C           105.08      -8.52       -47.71      
C           104.53      -7.36       -47.03      
C           105.21      -6.17       -47.05      
C           106.41      -6.04       -47.78      
C           113.56      -7.1        -51.96      
C           114.13      -8.26       -52.53      
C           113.33      -9.4        -52.56      
C           112.06      -9.46       -52.05      
C           107.81      -10.44      -48.31      
C           106.15      -10.04      -50.2       
C           112.5       -5.68       -49.32      
C           111.43      -4.9        -51.5       
H           109.19      -5.31       -49.05      
H           109.25      -9.96       -50.9       
H           114.12      -6.22       -51.97      
H           111.46      -10.31      -52.21      
H           104.59      -9.51       -47.74      
H           106.82      -5.01       -47.89      
H           108.05      -11.43      -48.74      
H           108.82      -9.99       -48.2       
H           107.3744    -10.61565   -47.32638   
H           106.74      -10.73      -50.74      
H           105.37      -10.58      -49.79      
H           105.84548   -9.29641    -50.93651   
H           112.35      -4.39       -51.54      
H           111.24      -5.39       -52.51      
H           110.61065   -4.20177    -51.329     
H           112.05      -4.93       -48.6       
H           113.44      -5.13       -49.6       
H           112.7183    -6.51801    -48.65804   
H           102.68      -7.96       -45.91      
H           116.02      -7.56       -53.58      
S           104.4       -4.85       -46.22      
C           103.34      -7.21       -46.24      
C           103.11      -5.96       -45.82      
C           118.73      -11.0       -56.61      
C           118.11      -9.67       -56.7       
C           118.31      -11.73      -55.5       
N           118.43      -8.68       -57.54      
N           116.79      -7.97       -56.14      
O           117.65      -7.67       -57.11      
H           117.01      -12.01      -53.8       
H           118.69      -12.78      -55.38      
C           117.3       -11.31      -54.6       
C           117.13      -9.2        -55.77      
C           116.6       -10.07      -54.78      
C           134.61      -13.6       -59.88      
C           133.85      -14.58      -59.39      
S           133.67      -12.28      -60.41      
C           127.81      -14.02      -58.62      
C           128.42      -13.04      -59.39      
C           127.73      -11.9       -59.69      
C           126.35      -11.75      -59.42      
C           125.75      -12.86      -58.82      
C           126.48      -14.06      -58.38      
C           125.49      -10.54      -59.57      
C           124.13      -11.22      -59.29      
C           124.31      -12.5       -58.64      
C           128.89      -14.96      -58.01      
C           130.06      -14.62      -58.92      
C           129.82      -13.38      -59.59      
C           122.88      -10.63      -59.33      
C           121.86      -11.25      -58.57      
C           122.03      -12.54      -57.96      
C           123.22      -13.22      -58.1       
C           131.35      -15.14      -58.87      
C           132.42      -14.41      -59.42      
C           132.15      -13.07      -59.99      
C           130.84      -12.59      -60.21      
C           125.56      -9.89       -60.98      
C           125.73      -9.63       -58.37      
C           128.68      -16.51      -58.07      
C           129.2       -14.49      -56.6       
H           125.94      -14.79      -57.8       
H           128.28      -11.02      -60.13      
H           131.53      -16.12      -58.41      
H           130.63      -11.63      -60.57      
H           122.71      -9.6        -59.71      
H           123.33      -14.21      -57.7       
H           126.59      -9.47       -61.09      
H           124.93      -8.97       -61.08      
H           125.2816    -10.56816   -61.78665   
H           125.41      -10.21      -57.51      
H           124.98      -8.84       -58.35      
H           126.67429   -9.08632    -58.34139   
H           130.13      -14.98      -56.23      
H           129.34      -13.42      -56.63      
H           128.39262   -14.70435   -55.89979   
H           127.81      -16.63      -57.41      
H           129.47      -17.14      -57.78      
H           128.4309    -16.85435   -59.07373   
H           120.26      -9.64       -58.56      
H           134.31      -15.45      -58.98      
S           120.65      -12.93      -56.96      
C           120.59      -10.65      -58.23      
C           119.88      -11.4       -57.36      
C           138.98      -13.23      -59.94      
C           138.33      -14.49      -59.83      
C           138.07      -12.21      -59.9       
N           138.94      -15.7       -59.94      
N           136.74      -15.94      -59.77      
O           137.93      -16.6       -59.75      
H           136.13      -11.44      -59.78      
H           138.5       -11.25      -59.95      
C           136.68      -12.35      -59.85      
C           136.97      -14.65      -59.81      
C           136.06      -13.54      -59.91      
C           154.31      -6.83       -60.36      
C           153.51      -6.73       -59.27      
S           153.6       -7.84       -61.59      
C           147.88      -9.32       -59.05      
C           148.58      -9.48       -60.29      
C           148.08      -10.3       -61.29      
C           146.9       -10.97      -61.05      
C           146.17      -10.85      -59.87      
C           146.61      -9.93       -58.9       
C           146.15      -11.95      -62.01      
C           144.89      -12.33      -61.24      
C           144.94      -11.59      -60.01      
C           148.69      -8.38       -58.16      
C           149.99      -8.26       -58.9       
C           149.89      -8.85       -60.22      
C           143.71      -13.03      -61.61      
C           142.6       -12.88      -60.73      
C           142.68      -12.11      -59.56      
C           143.82      -11.41      -59.22      
C           151.14      -7.63       -58.52      
C           152.21      -7.47       -59.4       
C           152.1       -8.01       -60.71      
C           150.96      -8.74       -61.13      
C           147.18      -13.13      -62.14      
C           145.76      -11.15      -63.25      
C           148.89      -9.05       -56.76      
C           147.99      -7.0        -57.97      
H           146.02      -9.71       -58.0       
H           148.72      -10.54      -62.1       
H           151.31      -7.22       -57.53      
H           151.02      -9.12       -62.14      
H           143.67      -13.67      -62.46      
H           143.85      -10.69      -58.42      
H           148.12      -12.73      -62.49      
H           147.37      -13.52      -61.15      
H           146.84324   -13.96458   -62.75495   
H           146.64      -10.93      -63.71      
H           145.2       -11.84      -63.84      
H           145.27436   -10.20772   -62.99631   
H           147.83      -6.99       -56.91      
H           148.78      -6.32       -58.29      
H           147.09491   -6.78856    -58.55498   
H           148.04      -9.02       -56.12      
H           149.76      -8.64       -56.3       
H           149.14404   -10.10848   -56.81645   
H           141.0       -14.1       -61.81      
H           153.85      -6.3        -58.43      
S           141.13      -12.02      -58.76      
C           141.24      -13.38      -60.95      
C           140.39      -12.96      -59.98      
C           158.37      -5.32       -60.79      
C           157.94      -5.99       -59.63      
C           157.39      -5.1        -61.74      
N           158.69      -6.57       -58.71      
N           156.6       -7.23       -58.35      
O           157.86      -7.3        -57.91      
H           155.37      -5.44       -62.39      
H           157.57      -4.42       -62.56      
C           156.06      -5.67       -61.62      
C           156.65      -6.57       -59.51      
C           155.63      -6.37       -60.55      
H           187.21      42.71       37.11       
H           159.4       -5.03       -60.95      
