612

C           138.33      25.31       9.34        
C           137.8       26.58       9.68        
S           140.07      25.37       9.68        
C           140.75      30.78       12.89       
C           141.52      29.65       12.65       
C           142.82      29.48       13.16       
C           143.28      30.53       13.94       
C           142.53      31.64       14.26       
C           141.22      31.76       13.77       
C           144.59      30.47       14.81       
C           144.6       31.9        15.43       
C           143.36      32.52       15.1        
C           139.3       30.64       12.46       
C           139.41      29.36       11.68       
C           140.68      28.79       11.84       
C           145.56      32.53       16.18       
C           145.26      33.84       16.65       
C           144.03      34.49       16.34       
C           143.06      33.78       15.58       
C           138.39      28.68       11.02       
C           138.69      27.44       10.42       
C           139.99      26.87       10.53       
C           141.06      27.53       11.16       
C           145.79      30.25       13.88       
C           144.56      29.59       16.05       
C           138.93      31.84       11.48       
C           138.31      30.57       13.61       
H           140.56      32.63       13.89       
H           143.39      28.54       13.04       
H           137.41      29.11       10.92       
H           142.07      27.1        11.22       
H           146.5       31.96       16.32       
H           142.1       34.23       15.25       
H           145.65      29.3        13.44       
H           146.72      30.11       14.46       
H           145.85374   30.97949    13.07261    
H           144.07      30.2        16.8        
H           145.51      29.32       16.47       
H           144.04389   28.64262    15.89446    
H           138.27      31.62       13.93       
H           137.32      30.24       13.35       
H           138.63348   29.96434    14.45655    
H           139.35      32.79       11.81       
H           137.86      31.92       11.27       
H           139.33196   31.7108     10.4751     
H           147.09      34.17       17.85       
H           136.72      26.69       9.58        
S           143.94      35.91       17.3        
C           146.09      34.57       17.58       
C           145.62      35.82       17.78       
C           137.24      22.29       6.24        
C           137.57      21.95       7.61        
C           137.25      23.65       6.05        
N           137.67      20.76       8.16        
N           138.2       22.28       9.76        
O           138.02      20.91       9.4         
H           137.38      25.57       6.76        
H           137.06      24.08       5.1         
C           137.38      24.55       7.14        
C           137.88      22.92       8.67        
C           137.78      24.29       8.43        
C           130.54      13.95       -6.08       
C           130.43      13.45       -4.83       
S           131.98      14.9        -6.32       
C           133.52      15.84       -0.23       
C           134.12      16.22       -1.52       
C           135.02      17.34       -1.65       
C           135.19      18.14       -0.57       
C           134.66      17.75       0.65        
C           133.74      16.7        0.81        
C           135.93      19.46       -0.61       
C           135.99      19.61       0.93        
C           135.22      18.67       1.64        
C           132.37      14.94       -0.38       
C           132.52      14.53       -1.9        
C           133.43      15.4        -2.55       
C           136.53      20.69       1.61        
C           136.45      20.75       3.0         
C           135.73      19.75       3.72        
C           134.99      18.76       3.05        
C           131.59      13.74       -2.53       
C           131.51      13.87       -3.98       
C           132.38      14.76       -4.62       
C           133.37      15.4        -3.91       
C           135.11      20.58       -1.27       
C           137.36      19.41       -1.17       
C           131.09      15.75       -0.01       
C           132.38      13.54       0.29        
H           133.29      16.51       1.8         
H           135.04      17.8        -2.63       
H           130.91      13.14       -1.91       
H           134.0       16.07       -4.56       
H           137.05      21.52       1.15        
H           134.32      18.14       3.56        
H           135.01      20.55       -2.37       
H           135.61      21.48       -1.05       
H           134.12088   20.66       -0.81908    
H           137.88      18.53       -0.6        
H           137.8       20.37       -0.88       
H           137.47006   19.24125    -2.24122    
H           131.42      13.21       0.54        
H           132.97      12.92       -0.43       
H           132.88703   13.47387    1.25262     
H           130.13      15.12       0.06        
H           131.33      16.07       1.03        
H           130.78198   16.55385    -0.67862    
H           137.48      22.63       3.63        
H           129.57      12.94       -4.48       
S           135.82      19.99       5.47        
C           136.97      21.74       3.92        
C           136.85      21.39       5.23        
C           127.7       13.87       -9.38       
C           127.3       13.78       -7.98       
C           129.04      14.02       -9.57       
N           126.07      13.6        -7.43       
N           127.62      13.56       -5.81       
O           126.3       13.34       -6.11       
H           131.06      13.91       -8.76       
H           129.47      13.96       -10.54      
C           129.99      14.07       -8.5        
C           128.23      13.78       -6.96       
C           129.62      13.95       -7.19       
C           117.56      15.01       -22.48      
C           118.91      15.36       -22.5       
S           117.19      14.37       -20.91      
C           122.85      14.11       -17.92      
C           121.49      13.97       -17.62      
C           121.03      13.59       -16.4       
C           121.94      13.29       -15.42      
C           123.34      13.45       -15.67      
C           123.78      13.9        -16.91      
C           121.7       13.34       -13.89      
C           123.09      13.2        -13.33      
C           124.05      13.26       -14.41      
C           123.04      14.62       -19.32      
C           121.53      14.69       -19.78      
C           120.68      14.27       -18.78      
C           123.45      13.27       -11.97      
C           124.86      13.41       -11.72      
C           125.76      13.46       -12.76      
C           125.46      13.28       -14.12      
C           121.06      15.07       -21.04      
C           119.64      14.98       -21.28      
C           118.83      14.44       -20.26      
C           119.27      14.15       -18.97      
C           120.69      12.26       -13.47      
C           121.16      14.71       -13.46      
C           123.94      13.58       -20.03      
C           123.63      16.05       -19.43      
H           124.82      14.06       -17.0       
H           119.95      13.51       -16.29      
H           121.67      15.39       -22.0       
H           118.65      13.64       -18.2       
H           122.71      13.39       -11.16      
H           126.28      13.41       -14.83      
H           119.91      12.85       -12.95      
H           120.26      11.75       -14.36      
H           121.05076   11.47957    -12.80001   
H           120.15      14.86       -13.98      
H           121.02      14.82       -12.41      
H           121.8202    15.53706    -13.72118   
H           123.65      16.39       -20.5       
H           123.04      16.85       -18.96      
H           124.61457   16.22123    -18.99479   
H           124.97      13.8        -19.66      
H           123.62      12.57       -19.71      
H           123.8206    13.51679    -21.1116    
H           124.86      13.74       -9.54       
H           119.37      15.85       -23.35      
S           127.42      13.65       -12.13      
C           125.44      13.66       -10.43      
C           126.79      13.77       -10.52      
C           114.13      16.86       -24.38      
C           114.13      15.49       -23.95      
C           115.32      17.4        -24.34      
N           113.11      14.71       -23.86      
N           114.94      13.5        -23.2       
O           113.59      13.48       -23.41      
H           117.4       17.41       -23.74      
H           115.43      18.41       -24.75      
C           116.49      16.78       -23.83      
C           115.29      14.82       -23.4       
C           116.5       15.54       -23.3       
C           100.38      20.82       -31.86      
C           101.3       21.82       -31.87      
S           100.49      19.97       -30.31      
C           106.18      21.78       -28.16      
C           105.1       20.98       -27.78      
C           105.24      20.12       -26.67      
C           106.47      19.96       -26.18      
C           107.61      20.57       -26.69      
C           107.43      21.56       -27.63      
C           106.87      19.01       -25.07      
C           108.36      18.99       -25.05      
C           108.78      19.97       -25.98      
C           105.78      22.67       -29.34      
C           104.4       22.1        -29.66      
C           103.96      21.2        -28.67      
C           109.16      18.27       -24.21      
C           110.55      18.22       -24.62      
C           110.99      19.13       -25.64      
C           110.19      20.05       -26.3       
C           103.53      22.4        -30.68      
C           102.25      21.75       -30.78      
C           101.93      20.8        -29.83      
C           102.79      20.49       -28.73      
C           106.37      17.55       -25.4       
C           106.35      19.49       -23.69      
C           106.7       22.33       -30.55      
C           105.85      24.18       -29.07      
H           108.25      22.17       -28.06      
H           104.46      19.48       -26.34      
H           103.86      23.03       -31.49      
H           102.47      19.82       -27.93      
H           108.86      17.53       -23.51      
H           110.64      20.58       -27.11      
H           106.47      16.86       -24.6       
H           105.29      17.67       -25.4       
H           106.71724   17.09646    -26.32834   
H           105.3       19.28       -23.62      
H           106.78      19.03       -22.87      
H           106.35      20.57259    -23.56308   
H           106.23      24.7        -30.02      
H           104.79      24.45       -28.91      
H           106.32468   24.42797    -28.12064   
H           107.56      22.94       -30.61      
H           106.15      22.6        -31.47      
H           106.92092   21.27528    -30.71391   
H           111.37      16.68       -23.34      
H           101.46      22.41       -32.72      
S           112.7       18.93       -25.77      
C           111.62      17.43       -24.09      
C           112.85      17.57       -24.61      
C           97.38       19.69       -34.92      
C           98.15       20.94       -34.99      
C           97.64       18.92       -33.78      
N           98.09       21.94       -35.92      
N           99.64       22.5        -34.34      
O           99.06       22.78       -35.57      
H           98.7        18.71       -31.86      
H           97.06       18.05       -33.52      
C           98.57       19.35       -32.78      
C           99.08       21.32       -33.92      
C           99.31       20.52       -32.79      
C           94.52       12.24       -48.95      
C           94.14       13.55       -48.85      
S           94.63       11.46       -47.36      
C           93.88       16.43       -43.52      
C           93.76       15.02       -43.44      
C           93.93       14.37       -42.25      
C           94.24       15.11       -41.12      
C           94.35       16.5        -41.2       
C           94.11       17.18       -42.36      
C           94.64       14.62       -39.73      
C           95.02       15.94       -39.02      
C           94.92       17.01       -39.93      
C           93.86       16.9        -44.94      
C           93.77       15.56       -45.68      
C           93.85       14.44       -44.78      
C           95.49       16.12       -37.71      
C           95.78       17.41       -37.29      
C           95.65       18.48       -38.17      
C           95.28       18.27       -39.51      
C           93.69       15.24       -47.03      
C           93.92       13.94       -47.53      
C           94.09       12.88       -46.6       
C           94.02       13.13       -45.23      
C           95.88       13.67       -39.72      
C           93.43       13.88       -39.05      
C           95.31       17.5        -45.29      
C           92.71       17.87       -45.4       
H           94.19       18.25       -42.35      
H           93.81       13.32       -42.18      
H           93.64       16.11       -47.7       
H           94.14       12.36       -44.44      
H           95.65       15.3        -37.05      
H           95.32       19.09       -40.21      
H           95.61       12.79       -40.14      
H           96.12       13.52       -38.65      
H           96.76025    14.1137     -40.18517   
H           93.51       12.82       -39.21      
H           93.26       14.21       -38.02      
H           92.50099    14.15448    -39.5497    
H           93.13       18.87       -45.52      
H           92.25       17.45       -46.29      
H           91.89053    17.97064    -44.68835   
H           95.4        17.66       -46.36      
H           95.36       18.39       -44.63      
H           96.10729    16.80149    -45.036     
H           96.48       17.23       -35.17      
H           94.23       14.24       -49.73      
S           96.36       19.97       -37.48      
C           96.26       17.85       -36.04      
C           96.61       19.13       -35.98      
C           96.55       11.02       -52.66      
C           95.22       11.52       -52.67      
C           96.92       10.67       -51.41      
N           94.6        12.13       -53.72      
N           93.51       12.57       -51.8       
O           93.47       12.58       -53.22      
H           96.84       10.91       -49.31      
H           97.9        10.49       -51.24      
C           96.24       11.05       -50.25      
C           94.47       11.78       -51.45      
C           95.04       11.59       -50.18      
C           106.96      7.72        -64.38      
C           107.43      8.05        -63.13      
S           105.42      8.52        -64.63      
C           104.07      10.75       -58.91      
C           103.56      10.78       -60.23      
C           102.26      11.32       -60.45      
C           101.46      11.44       -59.36      
C           101.94      11.13       -58.07      
C           103.25      10.82       -57.83      
C           99.92       11.75       -59.42      
C           99.55       11.59       -57.96      
C           100.7       11.0        -57.28      
C           105.61      10.35       -58.94      
C           105.74      10.07       -60.47      
C           104.57      10.39       -61.18      
C           98.41       11.74       -57.25      
C           98.32       11.32       -55.95      
C           99.47       10.84       -55.2       
C           100.64      10.65       -55.91      
C           106.82      9.46        -61.09      
C           106.65      8.99        -62.41      
C           105.51      9.32        -63.16      
C           104.52      10.14       -62.63      
C           99.2        10.8        -60.37      
C           99.72       13.2        -59.94      
C           105.87      9.09        -58.12      
C           106.61      11.5        -58.58      
H           103.66      10.7        -56.71      
H           101.84      11.45       -61.45      
H           107.76      9.24        -60.5       
H           103.6       10.34       -63.23      
H           97.52       12.09       -57.76      
H           101.5       10.31       -55.4       
H           99.74       10.77       -61.32      
H           99.09       9.77        -59.9       
H           98.16014    11.03108    -60.60108   
H           99.84       13.36       -60.98      
H           98.74       13.49       -59.66      
H           100.41105   13.90591    -59.4793    
H           107.59      11.08       -58.41      
H           106.7       12.15       -59.44      
H           106.26637   12.09222    -57.73189   
H           106.95      8.92        -58.0       
H           105.47      9.34        -57.11      
H           105.36442   8.19441     -58.48113   
H           96.26       11.82       -55.32      
H           108.35      7.69        -62.82      
S           99.08       10.44       -53.52      
C           97.17       11.35       -55.11      
C           97.43       10.99       -53.83      
C           108.59      4.83        -67.36      
C           109.13      5.01        -66.03      
C           107.48      5.58        -67.53      
N           110.15      4.31        -65.56      
N           109.46      5.76        -63.92      
O           110.41      4.8         -64.31      
H           106.18      7.15        -66.77      
H           106.93      5.48        -68.49      
C           107.01      6.54        -66.53      
C           108.66      5.89        -64.97      
C           107.56      6.75        -65.3       
C           108.39      -6.32       -78.93      
C           108.06      -5.0        -79.13      
S           109.48      -6.5        -77.58      
C           109.89      -0.46       -75.51      
C           110.39      -1.72       -75.16      
C           111.12      -1.93       -73.93      
C           111.05      -0.91       -73.0       
C           110.41      0.33        -73.31      
C           109.91      0.56        -74.59      
C           111.44      -0.85       -71.5       
C           110.88      0.5         -71.02      
C           110.25      1.14        -72.09      
C           108.89      -0.64       -76.65      
C           109.21      -2.06       -77.14      
C           109.98      -2.74       -76.15      
C           110.83      1.07        -69.72      
C           110.06      2.15        -69.49      
C           109.48      2.81        -70.66      
C           109.56      2.33        -71.95      
C           108.61      -2.73       -78.15      
C           108.7       -4.11       -78.18      
C           109.53      -4.78       -77.27      
C           110.21      -4.12       -76.2       
C           112.99      -0.77       -71.51      
C           110.87      -2.05       -70.71      
C           109.34      0.23        -77.83      
C           107.38      -0.4        -76.44      
H           109.3       1.47        -74.76      
H           111.64      -2.85       -73.74      
H           107.89      -2.15       -78.74      
H           110.78      -4.66       -75.46      
H           111.37      0.66        -68.86      
H           109.09      2.72        -72.87      
H           113.3       -1.51       -72.25      
H           113.28      0.21        -71.93      
H           113.5424    -0.88478    -70.57738   
H           111.52      -2.84       -71.04      
H           111.01      -1.96       -69.61      
H           109.80722   -2.22119    -70.88119   
H           107.12      0.58        -76.36      
H           106.79      -0.9        -77.24      
H           106.99272   -0.80802    -75.50639   
H           108.96      1.19        -77.64      
H           108.87      -0.17       -78.81      
H           110.42589   0.30387     -77.8891    
H           110.2       2.48        -67.25      
H           107.34      -4.69       -79.85      
S           108.63      4.24        -70.11      
C           109.85      2.85        -68.22      
C           109.08      3.96        -68.42      
C           107.46      -10.25      -80.78      
C           107.1       -9.03       -81.38      
C           107.94      -10.02      -79.56      
N           106.35      -8.84       -82.46      
N           107.02      -6.81       -81.73      
O           106.26      -7.48       -82.61      
H           108.59      -8.73       -78.01      
H           108.21      -10.88      -78.94      
C           108.28      -8.73       -79.02      
C           107.39      -7.69       -80.89      
C           108.13      -7.57       -79.63      
C           107.35      -26.36      -84.91      
C           107.31      -25.92      -83.59      
S           107.4       -25.0       -86.09      
C           107.11      -19.88      -82.16      
C           107.04      -20.21      -83.54      
C           106.98      -19.22      -84.48      
C           106.93      -17.91      -84.13      
C           106.95      -17.54      -82.75      
C           107.08      -18.53      -81.74      
C           106.89      -16.66      -84.97      
C           106.79      -15.62      -83.85      
C           106.85      -16.11      -82.55      
C           107.28      -21.2       -81.37      
C           107.2       -22.26      -82.47      
C           107.17      -21.63      -83.75      
C           106.87      -14.2       -83.96      
C           106.85      -13.42      -82.75      
C           106.71      -14.07      -81.43      
C           106.81      -15.42      -81.36      
C           107.31      -23.65      -82.38      
C           107.34      -24.49      -83.48      
C           107.25      -23.84      -84.77      
C           107.18      -22.46      -84.89      
C           105.71      -16.53      -86.04      
C           108.21      -16.48      -85.72      
C           106.21      -21.35      -80.28      
C           108.71      -21.27      -80.66      
H           107.03      -18.21      -80.73      
H           106.94      -19.52      -85.57      
H           107.44      -24.15      -81.39      
H           107.07      -22.03      -85.93      
H           106.89      -13.72      -84.92      
H           106.83      -15.98      -80.37      
H           105.97      -15.8       -86.83      
H           105.47      -17.45      -86.52      
H           104.75958   -16.25543   -85.58239   
H           108.24      -17.16      -86.53      
H           108.41      -15.44      -86.0       
H           109.08735   -16.69934   -85.11152   
H           108.65      -20.77      -79.69      
H           109.03      -22.29      -80.48      
H           109.47576   -20.74448   -81.23056   
H           106.3       -20.59      -79.51      
H           106.34      -22.36      -79.83      
H           105.19238   -21.33606   -80.67032   
H           107.31      -11.37      -83.43      
H           107.32      -26.52      -82.66      
S           106.81      -12.87      -80.12      
C           107.05      -12.05      -82.55      
C           107.11      -11.61      -81.28      
C           107.74      -30.45      -86.63      
C           107.61      -30.2       -85.18      
C           107.64      -29.3       -87.36      
N           107.57      -31.06      -84.19      
N           107.16      -29.0       -83.32      
O           107.34      -30.32      -83.03      
H           107.54      -27.1       -87.5       
H           107.68      -29.31      -88.45      
C           107.55      -27.96      -86.81      
C           107.43      -28.88      -84.61      
C           107.44      -27.72      -85.44      
C           112.71      -43.79      -95.34      
C           113.04      -42.55      -95.7       
S           112.13      -43.84      -93.69      
C           111.36      -37.53      -92.57      
C           111.18      -38.77      -91.93      
C           110.52      -38.88      -90.69      
C           110.24      -37.69      -90.01      
C           110.29      -36.49      -90.71      
C           111.0       -36.38      -91.92      
C           109.62      -37.64      -88.63      
C           109.36      -36.15      -88.61      
C           109.68      -35.48      -89.83      
C           111.95      -37.77      -93.95      
C           112.2       -39.29      -93.98      
C           111.66      -39.9       -92.76      
C           108.65      -35.44      -87.63      
C           108.58      -34.0       -87.71      
C           108.98      -33.42      -88.94      
C           109.51      -34.11      -90.0       
C           112.78      -40.08      -94.9       
C           112.62      -41.52      -94.77      
C           112.01      -42.13      -93.63      
C           111.56      -41.32      -92.59      
C           110.74      -37.97      -87.51      
C           108.33      -38.51      -88.48      
C           113.25      -36.95      -94.0       
C           110.99      -37.39      -95.13      
H           111.08      -35.55      -92.48      
H           110.35      -39.86      -90.27      
H           113.04      -39.71      -95.87      
H           110.99      -41.72      -91.73      
H           108.33      -36.04      -86.72      
H           109.71      -33.62      -90.98      
H           111.16      -38.94      -87.75      
H           110.33      -38.03      -86.52      
H           111.6128    -37.31723   -87.52467   
H           107.76      -38.45      -89.45      
H           107.73      -38.12      -87.71      
H           108.50553   -39.56316   -88.26059   
H           111.59      -37.31      -96.02      
H           110.25      -38.25      -95.21      
H           110.45688   -36.44301   -95.04582   
H           113.23      -35.85      -94.03      
H           113.67      -37.29      -94.95      
H           113.97216   -37.25444   -93.24244   
H           107.55      -33.49      -85.8       
H           113.57      -42.31      -96.67      
S           108.76      -31.69      -88.78      
C           107.97      -33.08      -86.79      
C           107.99      -31.78      -87.21      
C           113.24      -47.61      -97.5       
C           113.74      -46.37      -98.02      
C           112.62      -47.47      -96.31      
N           114.4       -46.12      -99.22      
N           114.32      -44.23      -97.98      
O           114.78      -44.81      -99.13      
H           111.95      -46.22      -94.68      
H           112.05      -48.34      -95.88      
C           112.53      -46.23      -95.58      
C           113.72      -45.17      -97.29      
C           113.04      -45.05      -96.06      
C           112.62      -61.82      -106.21     
C           111.54      -61.31      -105.61     
S           114.08      -60.9       -105.86     
C           111.6       -56.12      -102.42     
C           112.82      -56.4       -103.1      
C           113.92      -55.53      -103.09     
C           113.81      -54.43      -102.33     
C           112.66      -54.19      -101.54     
C           111.53      -55.08      -101.52     
C           114.7       -53.2       -102.41     
C           114.11      -52.4       -101.28     
C           112.87      -52.93      -100.9      
C           110.53      -57.15      -102.8      
C           111.27      -58.0       -103.78     
C           112.68      -57.7       -103.79     
C           114.56      -51.14      -100.88     
C           113.81      -50.44      -99.99      
C           112.6       -51.0       -99.44      
C           112.09      -52.21      -99.9       
C           110.82      -59.14      -104.45     
C           111.81      -60.04      -104.99     
C           113.15      -59.66      -104.99     
C           113.65      -58.5       -104.42     
C           114.55      -52.49      -103.83     
C           116.2       -53.47      -102.16     
C           109.33      -56.52      -103.46     
C           110.0       -58.03      -101.64     
H           110.59      -54.89      -101.01     
H           114.79      -55.7       -103.67     
H           109.77      -59.39      -104.44     
H           114.68      -58.16      -104.64     
H           115.63      -50.83      -100.99     
H           111.09      -52.58      -99.6       
H           115.3       -51.73      -104.04     
H           114.97      -53.11      -104.58     
H           113.54443   -52.19258   -104.12742  
H           116.41      -54.15      -103.01     
H           116.81      -52.53      -102.32     
H           116.39174   -54.01682   -101.23679  
H           109.24      -58.64      -102.14     
H           110.79      -58.73      -101.38     
H           109.55365   -57.49154   -100.80398  
H           108.84      -55.89      -102.75     
H           108.69      -57.27      -103.84     
H           109.62009   -55.78416   -104.20999  
H           115.06      -48.72      -99.58      
H           110.65      -61.87      -105.61     
S           111.87      -49.89      -98.3       
C           114.12      -49.21      -99.3       
C           113.25      -48.8       -98.31      
C           112.96      -64.93      -109.35     
C           111.77      -64.77      -108.52     
C           113.96      -64.03      -108.97     
N           110.72      -65.55      -108.58     
N           110.42      -63.96      -106.9      
O           109.85      -64.96      -107.69     
H           114.68      -62.46      -107.76     
H           114.77      -63.96      -109.66     
C           113.82      -63.08      -107.89     
C           111.7       -63.91      -107.38     
C           112.71      -62.97      -107.04     
H           146.17      36.55       18.4        
H           113.24      -65.99      -109.76     
