612

C           138.19      20.07       5.76        
C           138.64      21.35       5.91        
S           138.15      19.16       7.25        
C           141.04      23.21       11.22       
C           140.57      21.87       11.19       
C           140.65      20.98       12.31       
C           141.21      21.49       13.5        
C           141.7       22.79       13.55       
C           141.65      23.66       12.41       
C           141.14      20.87       14.85       
C           141.66      22.0        15.76       
C           142.13      23.04       14.92       
C           140.55      23.85       9.93        
C           140.22      22.7        9.06        
C           140.0       21.61       9.91        
C           141.82      22.01       17.1        
C           142.42      23.13       17.71       
C           142.89      24.14       16.88       
C           142.72      24.16       15.52       
C           139.82      22.68       7.73        
C           139.13      21.59       7.22        
C           138.9       20.5        8.07        
C           139.33      20.5        9.38        
C           142.12      19.6        14.99       
C           139.67      20.54       15.23       
C           141.66      24.66       9.19        
C           139.28      24.71       10.07       
H           141.8       24.7        12.62       
H           140.24      19.96       12.24       
H           139.85      23.59       7.18        
H           139.03      19.58       9.94        
H           141.37      21.23       17.67       
H           142.93      25.06       15.01       
H           141.92      18.91       14.13       
H           141.84      19.0        15.79       
H           143.1444    19.92724    15.16785    
H           138.96      21.32       15.01       
H           139.59      20.47       16.35       
H           139.30459   19.62991    14.75427    
H           139.06      25.3        9.16        
H           138.34      24.15       10.25       
H           139.36052   25.47864    10.83864    
H           141.78      25.57       9.71        
H           141.31      24.8        8.11        
H           142.59279   24.09758    9.14885     
H           142.66      22.66       19.96       
H           138.84      22.09       5.14        
S           143.61      25.46       17.82       
C           142.78      23.42       19.14       
C           143.24      24.7        19.36       
C           136.8       18.02       2.14        
C           137.44      19.28       2.03        
C           136.76      17.48       3.41        
N           137.64      20.11       0.98        
N           138.15      21.23       2.84        
O           138.19      21.26       1.47        
H           137.14      17.74       5.5         
H           136.36      16.52       3.64        
C           137.24      18.22       4.56        
C           137.71      20.06       3.21        
C           137.72      19.45       4.53        
C           129.86      8.97        -10.09      
C           129.36      9.16        -8.83       
S           131.33      9.96        -10.29      
C           131.91      12.56       -4.44       
C           132.4       12.77       -5.77       
C           133.57      13.64       -5.96       
C           134.16      14.12       -4.83       
C           133.59      13.96       -3.51       
C           132.44      13.22       -3.29       
C           135.33      15.17       -4.71       
C           135.49      15.31       -3.21       
C           134.4       14.68       -2.51       
C           130.63      11.67       -4.53       
C           130.64      11.28       -5.97       
C           131.71      11.9        -6.66       
C           136.38      16.08       -2.46       
C           135.97      16.38       -1.12       
C           134.86      15.81       -0.52       
C           134.11      14.83       -1.17       
C           129.8       10.38       -6.62       
C           130.12      10.07       -7.99       
C           131.24      10.64       -8.66       
C           132.06      11.65       -8.0        
C           134.93      16.48       -5.43       
C           136.71      14.69       -5.23       
C           129.42      12.53       -4.12       
C           130.62      10.37       -3.64       
H           131.99      13.09       -2.31       
H           134.06      13.73       -6.92       
H           128.9       9.93        -6.13       
H           132.93      12.16       -8.5        
H           137.3       16.46       -2.8        
H           133.29      14.46       -0.59       
H           134.78      16.27       -6.48       
H           135.72      17.22       -5.52       
H           134.06486   16.96304    -4.9758     
H           137.05      13.82       -4.59       
H           137.51      15.4        -5.07       
H           136.80358   14.41646    -6.28096    
H           130.13      10.68       -2.75       
H           130.11      9.56        -4.11       
H           131.61318   10.06653    -3.30894    
H           128.52      12.04       -3.7        
H           129.81      13.04       -3.25       
H           129.18891   13.20225    -4.94631    
H           137.68      17.92       -0.6        
H           128.42      8.85        -8.45       
S           134.95      16.27       1.17        
C           136.75      17.36       -0.31       
C           136.31      17.35       0.94        
C           128.68      6.59        -13.65      
C           127.99      6.52        -12.45      
C           129.79      7.4         -13.62      
N           126.8       5.91        -12.25      
N           127.26      7.16        -10.43      
O           126.46      6.25        -10.97      
H           131.05      8.7         -12.56      
H           130.51      7.39        -14.42      
C           130.17      8.09        -12.43      
C           128.29      7.27        -11.25      
C           129.49      8.08        -11.2       
C           129.13      -5.48       -24.5       
C           130.11      -4.52       -24.47      
S           127.72      -4.91       -23.59      
C           129.34      0.73        -21.49      
C           128.18      -0.08       -21.51      
C           127.02      0.17        -20.73      
C           127.02      1.26        -19.92      
C           128.14      2.05        -19.8       
C           129.32      1.84        -20.61      
C           126.02      1.5         -18.82      
C           126.69      2.7         -18.16      
C           127.96      2.99        -18.78      
C           130.52      0.1         -22.29      
C           129.9       -1.13       -22.91      
C           128.55      -1.25       -22.35      
C           126.41      3.44        -17.01      
C           127.33      4.31        -16.44      
C           128.48      4.7         -17.17      
C           128.77      4.06        -18.41      
C           130.47      -2.12       -23.66      
C           129.74      -3.3        -23.82      
C           128.51      -3.42       -23.17      
C           127.83      -2.4        -22.49      
C           125.92      0.19        -17.96      
C           124.63      1.9         -19.41      
C           131.72      -0.33       -21.42      
C           131.03      1.12        -23.32      
H           130.14      2.49        -20.57      
H           126.26      -0.54       -20.59      
H           131.55      -2.05       -24.09      
H           126.8       -2.43       -22.2       
H           125.42      3.32        -16.5       
H           129.75      4.07        -18.79      
H           125.05      0.4         -17.29      
H           125.74      -0.68       -18.53      
H           126.80135   0.04311     -17.33571   
H           124.27      1.08        -20.07      
H           124.0       1.96        -18.52      
H           124.61631   2.86508     -19.91649   
H           131.72      1.93        -23.02      
H           131.53      0.71        -24.11      
H           130.24197   1.59998     -23.90028   
H           132.43      -0.95       -21.92      
H           132.33      0.59        -21.24      
H           131.34074   -0.82866    -20.52803   
H           126.46      4.73        -14.53      
H           131.05      -4.7        -25.02      
S           129.49      5.7         -16.18      
C           127.25      4.96        -15.2       
C           128.3       5.77        -14.85      
C           128.82      -9.37       -26.63      
C           128.3       -9.19       -25.31      
C           129.42      -8.24       -27.12      
N           127.74      -10.01      -24.48      
N           127.93      -8.13       -23.35      
O           127.7       -9.43       -23.25      
H           130.01      -6.16       -26.8       
H           130.02      -8.25       -28.05      
C           129.56      -6.99       -26.42      
C           128.37      -7.92       -24.61      
C           129.13      -6.8        -25.15      
C           121.79      -21.83      -34.11      
C           121.7       -20.61      -34.62      
S           123.1       -22.08      -32.94      
C           125.23      -16.15      -32.55      
C           125.55      -17.47      -32.11      
C           126.39      -17.68      -30.99      
C           126.99      -16.61      -30.42      
C           126.68      -15.32      -30.83      
C           125.89      -15.09      -31.94      
C           127.49      -16.46      -28.94      
C           127.87      -14.99      -28.92      
C           127.32      -14.35      -30.04      
C           123.94      -16.15      -33.39      
C           123.75      -17.63      -33.51      
C           124.76      -18.41      -32.75      
C           128.42      -14.27      -27.88      
C           128.48      -12.9       -27.96      
C           127.88      -12.28      -29.06      
C           127.28      -12.98      -30.15      
C           122.74      -18.31      -34.07      
C           122.65      -19.72      -34.04      
C           123.56      -20.43      -33.19      
C           124.62      -19.78      -32.5       
C           128.77      -17.34      -28.82      
C           126.34      -16.86      -28.0       
C           124.03      -15.46      -34.76      
C           122.72      -15.58      -32.6       
H           125.6       -14.03      -32.15      
H           126.62      -18.64      -30.67      
H           122.03      -17.79      -34.78      
H           125.32      -20.32      -31.87      
H           128.81      -14.68      -27.03      
H           126.96      -12.28      -30.95      
H           128.56      -18.38      -29.01      
H           129.54      -17.08      -29.57      
H           129.25727   -17.30955   -27.84545   
H           125.78      -17.48      -28.65      
H           126.64      -17.42      -27.12      
H           125.75635   -15.98812   -27.70457   
H           121.85      -16.13      -32.97      
H           122.72      -15.87      -31.54      
H           122.62594   -14.49467   -32.56382   
H           124.3       -14.42      -34.6       
H           123.06      -15.4       -35.17      
H           124.7102    -15.96306   -35.44728   
H           129.2       -12.18      -25.97      
H           120.88      -20.28      -35.27      
S           127.81      -10.52      -28.82      
C           128.86      -11.92      -26.96      
C           128.68      -10.62      -27.33      
C           119.18      -25.4       -34.52      
C           119.04      -24.32      -35.48      
C           120.12      -25.13      -33.56      
N           118.2       -24.18      -36.47      
N           119.44      -22.31      -36.29      
O           118.39      -22.92      -36.96      
H           121.64      -23.87      -32.66      
H           120.19      -25.88      -32.7       
C           120.99      -24.02      -33.56      
C           119.87      -23.14      -35.41      
C           120.91      -22.95      -34.4       
C           113.18      -40.5       -37.11      
C           113.95      -40.32      -35.96      
S           112.66      -38.94      -37.77      
C           115.67      -34.82      -34.14      
C           114.89      -34.85      -35.28      
C           114.43      -33.67      -35.9       
C           115.05      -32.5       -35.69      
C           115.93      -32.46      -34.62      
C           116.31      -33.6       -33.93      
C           114.69      -31.17      -36.31      
C           115.4       -30.24      -35.35      
C           116.32      -31.03      -34.52      
C           116.01      -36.22      -33.64      
C           115.3       -37.0       -34.73      
C           114.53      -36.22      -35.63      
C           115.67      -28.95      -35.58      
C           116.75      -28.27      -34.99      
C           117.59      -29.01      -34.14      
C           117.39      -30.4       -33.79      
C           115.13      -38.35      -34.78      
C           114.2       -38.92      -35.65      
C           113.55      -38.05      -36.57      
C           113.71      -36.69      -36.61      
C           113.21      -30.88      -36.29      
C           115.23      -31.0       -37.78      
C           115.43      -36.44      -32.25      
C           117.55      -36.62      -33.77      
H           117.06      -33.46      -33.18      
H           113.58      -33.68      -36.58      
H           115.75      -39.07      -34.24      
H           113.18      -36.01      -37.24      
H           115.0       -28.42      -36.25      
H           118.09      -30.96      -33.1       
H           112.75      -31.62      -36.93      
H           112.91      -29.98      -36.75      
H           112.79192   -30.90834   -35.28377   
H           114.55      -31.38      -38.56      
H           115.38      -29.97      -38.14      
H           116.20182   -31.45733   -37.96579   
H           117.63      -37.7       -33.63      
H           117.96      -36.28      -34.74      
H           118.16769   -36.11092   -33.03013   
H           115.87      -37.37      -31.95      
H           115.94      -35.7       -31.61      
H           114.35285   -36.36256   -32.10216   
H           116.61      -26.19      -35.7       
H           114.31      -41.2       -35.4       
S           118.96      -28.04      -33.64      
C           117.17      -26.89      -35.12      
C           118.33      -26.59      -34.44      
C           110.88      -43.99      -38.77      
C           111.56      -44.08      -37.54      
C           111.1       -42.76      -39.35      
N           111.48      -45.05      -36.68      
N           112.79      -43.46      -35.88      
O           112.2       -44.67      -35.6       
H           112.03      -40.81      -39.47      
H           110.5       -42.56      -40.19      
C           111.98      -41.69      -38.91      
C           112.29      -42.97      -36.97      
C           112.53      -41.73      -37.67      
C           104.54      -55.79      -47.76      
C           105.2       -56.08      -46.64      
S           104.08      -54.12      -47.88      
C           106.4       -51.77      -42.44      
C           105.53      -51.38      -43.48      
C           105.09      -50.08      -43.62      
C           105.66      -49.15      -42.71      
C           106.56      -49.55      -41.72      
C           106.95      -50.83      -41.55      
C           105.59      -47.62      -42.77      
C           106.52      -47.21      -41.64      
C           107.08      -48.39      -41.03      
C           106.76      -53.27      -42.52      
C           105.89      -53.61      -43.77      
C           105.18      -52.56      -44.31      
C           107.04      -45.93      -41.38      
C           108.11      -45.85      -40.51      
C           108.58      -47.02      -39.84      
C           108.1       -48.28      -40.09      
C           106.0       -54.8       -44.51      
C           105.32      -54.95      -45.74      
C           104.69      -53.8       -46.24      
C           104.59      -52.6       -45.58      
C           104.08      -47.43      -42.45      
C           106.01      -46.94      -44.09      
C           106.29      -53.9       -41.16      
C           108.29      -53.5       -42.81      
H           107.62      -51.12      -40.75      
H           104.44      -49.69      -44.4       
H           106.51      -55.67      -44.17      
H           104.07      -51.77      -46.02      
H           106.68      -45.05      -41.88      
H           108.68      -49.16      -39.75      
H           103.57      -46.81      -43.23      
H           103.58      -48.36      -42.42      
H           103.89139   -46.89211   -41.52092   
H           105.33      -47.05      -44.87      
H           106.11      -45.87      -43.83      
H           106.88274   -47.41929   -44.53352   
H           108.71      -53.74      -41.83      
H           108.41      -54.34      -43.45      
H           108.89624   -52.71048   -43.25411   
H           107.03      -54.65      -40.82      
H           106.26      -53.23      -40.28      
H           105.30713   -54.36704   -41.22274   
H           108.71      -43.71      -40.6       
H           105.53      -57.1       -46.39      
S           109.98      -46.56      -38.99      
C           108.91      -44.72      -40.17      
C           109.86      -44.89      -39.23      
C           104.3       -58.22      -51.55      
C           105.13      -58.57      -50.39      
C           103.57      -57.11      -51.29      
N           106.02      -59.55      -50.25      
N           105.98      -58.41      -48.34      
O           106.49      -59.38      -48.99      
H           102.97      -55.57      -49.99      
H           102.9       -56.8       -52.03      
C           103.62      -56.39      -50.04      
C           105.2       -57.78      -49.21      
C           104.38      -56.65      -48.93      
C           106.7       -59.62      -67.48      
C           105.59      -59.03      -66.95      
S           107.41      -60.81      -66.37      
C           103.84      -59.62      -61.18      
C           105.06      -60.3       -61.56      
C           105.85      -60.94      -60.61      
C           105.37      -60.91      -59.23      
C           104.28      -60.12      -58.87      
C           103.56      -59.44      -59.83      
C           106.25      -61.46      -58.12      
C           105.44      -60.82      -57.0       
C           104.26      -60.09      -57.42      
C           103.26      -58.87      -62.39      
C           104.15      -59.36      -63.54      
C           105.21      -60.24      -62.98      
C           105.71      -60.68      -55.63      
C           104.93      -59.94      -54.74      
C           103.78      -59.24      -55.23      
C           103.49      -59.33      -56.59      
C           104.23      -58.93      -64.84      
C           105.26      -59.42      -65.6       
C           106.25      -60.38      -65.11      
C           106.18      -60.81      -63.8       
C           107.66      -60.88      -58.14      
C           106.3       -62.99      -58.06      
C           103.36      -57.34      -62.26      
C           101.85      -59.44      -62.61      
H           102.77      -58.82      -59.57      
H           106.73      -61.54      -60.92      
H           103.57      -58.19      -65.28      
H           107.03      -61.41      -63.4       
H           106.63      -61.09      -55.34      
H           102.63      -58.86      -57.02      
H           108.23      -61.24      -57.22      
H           108.23      -61.19      -59.01      
H           107.66708   -59.79023   -58.16123   
H           106.74      -63.36      -58.98      
H           106.94      -63.36      -57.27      
H           105.31254   -63.42564   -57.90753   
H           101.59      -59.45      -63.73      
H           101.79      -60.47      -62.45      
H           101.11881   -58.91973   -61.9913    
H           103.03      -56.97      -61.29      
H           102.75      -56.81      -62.99      
H           104.34      -56.90365   -62.45314   
H           106.03      -60.14      -52.82      
H           105.0       -58.25      -67.45      
S           102.95      -58.42      -53.96      
C           105.1       -59.69      -53.31      
C           104.23      -58.81      -52.81      
C           108.86      -58.99      -71.24      
C           107.55      -58.39      -70.98      
C           109.32      -59.77      -70.18      
N           106.9       -57.65      -71.78      
N           105.74      -57.65      -69.87      
O           105.85      -57.11      -71.12      
H           109.01      -60.56      -68.25      
H           110.27      -60.34      -70.21      
C           108.62      -59.81      -68.96      
C           106.84      -58.37      -69.7       
C           107.33      -59.33      -68.74      
C           115.9       -58.82      -86.25      
C           116.27      -59.76      -85.35      
S           115.48      -57.28      -85.44      
C           114.22      -59.72      -79.61      
C           114.16      -58.48      -80.3       
C           113.53      -57.4       -79.64      
C           112.92      -57.53      -78.4       
C           112.84      -58.84      -77.79      
C           113.46      -59.94      -78.38      
C           112.04      -56.6       -77.62      
C           111.6       -57.46      -76.49      
C           112.14      -58.75      -76.55      
C           114.95      -60.75      -80.51      
C           115.29      -59.88      -81.73      
C           114.78      -58.54      -81.62      
C           110.81      -56.97      -75.48      
C           110.42      -57.95      -74.53      
C           110.98      -59.24      -74.57      
C           111.76      -59.68      -75.54      
C           115.8       -60.31      -82.93      
C           115.74      -59.48      -84.03      
C           115.38      -58.1       -83.86      
C           114.92      -57.56      -82.66      
C           110.8       -56.14      -78.46      
C           112.88      -55.38      -77.05      
C           113.92      -61.89      -80.69      
C           116.2       -61.27      -79.79      
H           113.58      -60.84      -77.73      
H           113.5       -56.43      -80.12      
H           116.07      -61.31      -83.04      
H           114.68      -56.47      -82.57      
H           110.38      -56.0       -75.51      
H           112.0       -60.76      -75.64      
H           110.25      -55.27      -78.06      
H           111.22      -55.81      -79.36      
H           110.19339   -57.00054   -78.74214   
H           112.16      -54.57      -76.78      
H           113.25      -55.54      -76.06      
H           113.55896   -54.85503   -77.72196   
H           115.93      -61.89      -78.95      
H           116.73      -61.89      -80.5       
H           116.94231   -60.5491    -79.44739   
H           113.75      -62.28      -79.68      
H           114.44      -62.63      -81.28      
H           113.02129   -61.65128   -81.25871   
H           109.21      -56.76      -73.04      
H           116.66      -60.73      -85.6       
S           110.49      -60.13      -73.17      
C           109.71      -57.72      -73.33      
C           109.6       -58.8       -72.47      
C           116.99      -58.3       -90.49      
C           117.89      -58.87      -89.51      
C           115.74      -58.01      -89.97      
N           119.17      -59.21      -89.64      
N           118.51      -59.46      -87.43      
O           119.53      -59.57      -88.4       
H           114.39      -58.04      -88.36      
H           114.95      -57.51      -90.53      
C           115.39      -58.26      -88.63      
C           117.53      -59.0       -88.18      
C           116.25      -58.63      -87.66      
C           122.19      -58.27      -105.96     
C           121.05      -58.85      -105.5      
S           122.96      -57.54      -104.57     
C           118.57      -57.82      -100.08     
C           119.95      -57.45      -100.23     
C           120.72      -56.93      -99.22      
C           120.16      -56.98      -98.0       
C           118.82      -57.36      -97.79      
C           117.96      -57.63      -98.81      
C           120.83      -56.52      -96.65      
C           119.67      -56.75      -95.68      
C           118.56      -57.33      -96.35      
C           118.05      -58.41      -101.41     
C           119.34      -58.4       -102.22     
C           120.36      -57.78      -101.53     
C           119.73      -56.71      -94.35      
C           118.72      -57.33      -93.58      
C           117.59      -57.76      -94.33      
C           117.42      -57.7       -95.7       
C           119.58      -58.89      -103.52     
C           120.68      -58.51      -104.18     
C           121.66      -57.83      -103.52     
C           121.56      -57.53      -102.13     
C           121.13      -55.0       -96.43      
C           122.07      -57.4       -96.24      
C           116.98      -57.45      -101.97     
C           117.54      -59.82      -101.29     
H           116.9       -57.91      -98.58      
H           121.81      -56.84      -99.34      
H           118.81      -59.53      -103.85     
H           122.29      -56.97      -101.65     
H           120.52      -56.22      -93.99      
H           116.47      -57.96      -96.15      
H           121.74      -54.52      -97.23      
H           121.62      -54.81      -95.49      
H           120.23093   -54.3914    -96.33318   
H           121.71      -58.44      -96.4       
H           122.23      -57.32      -95.2       
H           122.97686   -57.18015   -96.80335   
H           117.33      -60.19      -102.31     
H           118.32      -60.49      -100.94     
H           116.63406   -60.00119   -100.7116   
H           116.09      -57.54      -101.31     
H           116.62      -57.82      -102.94     
H           117.34709   -56.43343   -102.11119  
H           119.34      -57.29      -91.42      
H           120.47      -59.52      -106.16     
S           116.31      -58.24      -93.2       
C           118.55      -57.47      -92.18      
C           117.35      -57.89      -91.8       
C           124.02      -58.68      -110.06     
C           123.22      -59.71      -109.46     
C           124.16      -57.61      -109.21     
N           122.98      -60.91      -109.92     
N           122.08      -60.74      -107.86     
O           122.25      -61.55      -108.97     
H           123.69      -56.58      -107.36     
H           124.77      -56.77      -109.47     
C           123.51      -57.45      -107.92     
C           122.69      -59.61      -108.16     
C           122.79      -58.48      -107.31     
C           132.66      -57.88      -124.3      
C           132.68      -56.88      -123.37     
S           131.99      -59.32      -123.55     
C           130.12      -57.26      -117.76     
C           130.02      -58.41      -118.58     
C           129.3       -59.58      -118.15     
C           128.59      -59.47      -116.98     
C           128.63      -58.34      -116.18     
C           129.39      -57.24      -116.57     
C           127.63      -60.5       -116.48     
C           127.11      -59.86      -115.23     
C           127.74      -58.6       -115.06     
C           130.74      -56.11      -118.62     
C           131.26      -56.85      -119.79     
C           130.83      -58.21      -119.79     
C           126.06      -60.24      -114.39     
C           125.77      -59.47      -113.29     
C           126.48      -58.28      -113.12     
C           127.45      -57.79      -113.99     
C           131.89      -56.29      -120.9      
C           132.07      -57.16      -122.06     
C           131.61      -58.46      -122.03     
C           131.03      -59.03      -120.87     
C           128.5       -61.71      -116.17     
C           126.51      -60.88      -117.47     
C           131.91      -55.6       -117.69     
C           129.8       -54.97      -119.05     
H           129.46      -56.36      -115.97     
H           129.3       -60.48      -118.73     
H           132.15      -55.28      -120.87     
H           130.74      -60.06      -120.88     
H           125.58      -61.21      -114.53     
H           127.87      -56.75      -113.88     
H           129.17      -61.83      -116.99     
H           129.2       -61.29      -115.44     
H           128.03377   -62.61332   -115.77662  
H           126.88      -61.36      -118.36     
H           125.94      -61.63      -116.97     
H           125.85458   -60.03222   -117.66948  
H           130.28      -54.06      -119.45     
H           129.31      -55.38      -119.92     
H           129.03988   -54.62648   -118.34835  
H           131.56      -55.05      -116.82     
H           132.61      -54.92      -118.22     
H           132.49535   -56.42805   -117.29025  
H           124.38      -60.68      -112.02     
H           133.04      -55.88      -123.56     
S           125.95      -57.49      -111.65     
C           124.88      -59.72      -112.14     
C           124.74      -58.74      -111.31     
C           134.15      -58.05      -128.51     
C           134.49      -57.06      -127.62     
C           133.34      -58.97      -127.93     
N           135.32      -56.02      -127.88     
N           134.38      -55.77      -125.79     
O           135.17      -55.23      -126.75     
H           132.28      -59.77      -126.31     
H           133.04      -59.85      -128.47     
C           132.95      -58.94      -126.57     
C           133.96      -56.89      -126.27     
C           133.15      -57.94      -125.68     
H           143.11      25.22       20.38       
H           134.63      -58.08      -129.48     
