612

C           114.85      11.32       12.85       
C           115.02      11.71       14.14       
S           114.37      12.72       11.84       
C           113.36      17.27       16.02       
C           113.5       17.23       14.66       
C           113.02      18.3        13.9        
C           112.45      19.47       14.46       
C           112.43      19.58       15.82       
C           112.91      18.48       16.68       
C           111.9       20.73       13.75       
C           111.42      21.51       14.98       
C           111.8       20.86       16.16       
C           113.72      16.0        16.7        
C           114.08      15.09       15.51       
C           113.96      15.85       14.31       
C           110.91      22.76       14.99       
C           110.72      23.39       16.2        
C           111.05      22.69       17.39       
C           111.56      21.42       17.42       
C           114.46      13.79       15.6        
C           114.6       13.07       14.41       
C           114.4       13.81       13.18       
C           114.25      15.19       13.13       
C           110.77      20.22       12.85       
C           112.88      21.59       12.97       
C           112.5       15.43       17.49       
C           115.07      16.1        17.56       
H           112.89      18.55       17.81       
H           113.06      18.22       12.84       
H           114.59      13.34       16.56       
H           114.11      15.61       12.15       
H           110.55      23.18       14.04       
H           111.97      20.99       18.23       
H           111.08      19.51       12.0        
H           110.32      21.06       12.35       
H           109.95117   19.77143    13.4125     
H           113.66      22.04       13.64       
H           112.4       22.48       12.49       
H           113.48491   21.05626    12.23699    
H           114.86      16.71       18.45       
H           115.28      15.08       17.93       
H           115.94561   16.43094    17.00154    
H           112.31      16.2        18.28       
H           112.74      14.6        18.09       
H           111.58614   15.26955    16.91797    
H           109.7       25.3        15.74       
H           115.43      11.02       14.85       
S           110.73      23.69       18.77       
C           110.19      24.68       16.49       
C           110.13      25.0        17.81       
C           116.01      7.67        10.74       
C           115.98      7.78        12.17       
C           115.44      8.72        10.09       
N           116.41      6.85        13.07       
N           115.7       8.72        14.16       
O           116.26      7.44        14.34       
H           114.7       10.71       10.25       
H           115.26      8.7         9.0         
C           115.02      9.91        10.84       
C           115.59      8.97        12.88       
C           115.09      10.11       12.17       
C           121.96      -5.37       2.03        
C           121.96      -5.22       3.38        
S           120.98      -4.06       1.39        
C           119.42      -0.77       6.71        
C           119.4       -0.58       5.33        
C           118.62      0.39        4.74        
C           118.11      1.42        5.57        
C           118.26      1.22        7.01        
C           118.92      0.1         7.62        
C           117.43      2.66        5.2         
C           117.14      3.24        6.6         
C           117.65      2.43        7.63        
C           120.23      -1.99       7.06        
C           120.39      -2.65       5.7         
C           119.92      -1.8        4.63        
C           116.7       4.53        6.86        
C           116.6       4.99        8.17        
C           117.12      4.13        9.2         
C           117.56      2.8         8.94        
C           121.07      -3.8        5.33        
C           121.24      -4.11       3.97        
C           120.67      -3.34       2.95        
C           120.02      -2.16       3.29        
C           116.17      2.49        4.31        
C           118.28      3.72        4.52        
C           119.34      -2.8        8.05        
C           121.59      -1.63       7.73        
H           118.86      -0.09       8.68        
H           118.62      0.47        3.74        
H           121.49      -4.49       6.08        
H           119.71      -1.47       2.5         
H           116.37      5.23        6.04        
H           118.01      2.19        9.82        
H           116.38      2.08        3.37        
H           115.75      3.46        4.05        
H           115.51094   1.72726     4.72469     
H           118.93      4.25        5.21        
H           117.51      4.5         4.23        
H           118.81493   3.35625     3.64271     
H           121.57      -1.56       8.81        
H           122.26      -2.31       7.37        
H           122.0452    -0.7128     7.35633     
H           119.26      -2.47       9.1         
H           118.35      -2.66       7.64        
H           119.65014   -3.84118    8.13861     
H           115.89      7.04        7.92        
H           122.59      -5.83       4.05        
S           117.05      5.07        10.67       
C           116.22      6.29        8.61        
C           116.35      6.49        9.96        
C           123.93      -8.37       -0.66       
C           124.3       -8.19       0.74        
C           122.83      -7.64       -0.99       
N           125.32      -8.7        1.52        
N           124.22      -7.17       2.69        
O           125.32      -7.91       2.63        
H           121.39      -6.11       -0.68       
H           122.43      -7.84       -1.99       
C           122.2       -6.64       -0.17       
C           123.6       -7.15       1.52        
C           122.57      -6.32       1.11        
C           135.65      -15.64      -10.08      
C           134.71      -14.79      -10.62      
S           135.33      -16.01      -8.43       
C           130.04      -12.43      -7.37       
C           130.87      -13.3       -6.64       
C           130.69      -13.51      -5.31       
C           129.62      -12.96      -4.72       
C           128.8       -12.02      -5.34       
C           129.07      -11.75      -6.7        
C           129.32      -13.06      -3.23       
C           128.0       -12.21      -3.11       
C           127.78      -11.59      -4.39       
C           130.63      -12.06      -8.75       
C           131.8       -13.11      -8.8        
C           131.84      -13.85      -7.62       
C           127.18      -11.94      -2.08       
C           126.2       -10.94      -2.18       
C           126.03      -10.32      -3.41       
C           126.8       -10.63      -4.55       
C           132.66      -13.41      -9.83       
C           133.7       -14.35      -9.65       
C           133.84      -15.01      -8.39       
C           132.84      -14.74      -7.37       
C           130.42      -12.31      -2.33       
C           129.02      -14.52      -2.82       
C           131.15      -10.58      -8.69       
C           129.68      -12.33      -10.02      
H           128.4       -11.02      -7.26       
H           131.37      -14.17      -4.79       
H           132.62      -12.89      -10.76      
H           132.79      -15.31      -6.41       
H           127.37      -12.41      -1.16       
H           126.65      -10.08      -5.53       
H           131.4       -12.57      -2.79       
H           130.24      -11.26      -2.45       
H           130.39838   -12.44695   -1.24885    
H           129.88      -15.14      -2.74       
H           128.49      -14.52      -1.85       
H           128.41757   -15.02548   -3.57476    
H           128.95      -11.5       -10.24      
H           130.28      -12.58      -10.88      
H           129.04493   -13.20055   -9.85588    
H           131.01      -10.03      -9.58       
H           130.6       -9.95       -7.98       
H           132.21308   -10.41699   -8.51282    
H           125.38      -10.76      -0.14       
H           134.84      -14.44      -11.63      
S           124.98      -8.98       -3.21       
C           125.4       -10.36      -1.15       
C           124.62      -9.34       -1.53       
C           138.8       -18.0       -12.1       
C           138.12      -16.9       -12.77      
C           138.38      -18.22      -10.85      
N           138.16      -16.49      -14.04      
N           136.62      -15.21      -12.97      
O           137.23      -15.46      -14.18      
H           137.35      -17.62      -9.13       
H           138.85      -19.03      -10.31      
C           137.41      -17.39      -10.18      
C           137.14      -16.14      -12.13      
C           136.75      -16.38      -10.75      
C           145.9       -28.16      -22.87      
C           146.4       -26.97      -22.62      
S           144.98      -28.66      -21.47      
C           144.29      -23.39      -18.19      
C           143.94      -24.75      -18.05      
C           142.93      -25.18      -17.15      
C           142.39      -24.24      -16.25      
C           142.78      -22.92      -16.41      
C           143.67      -22.4       -17.36      
C           141.38      -24.44      -15.16      
C           141.22      -23.0       -14.63      
C           142.12      -22.17      -15.34      
C           145.24      -23.16      -19.33      
C           145.5       -24.55      -19.85      
C           144.66      -25.39      -19.12      
C           140.35      -22.52      -13.64      
C           140.32      -21.12      -13.4       
C           141.28      -20.33      -14.14      
C           142.2       -20.86      -15.0       
C           146.22      -25.01      -20.93      
C           145.98      -26.36      -21.36      
C           145.2       -27.19      -20.55      
C           144.61      -26.77      -19.4       
C           141.98      -25.36      -14.11      
C           140.07      -25.01      -15.64      
C           146.47      -22.38      -18.8       
C           144.63      -22.25      -20.45      
H           143.81      -21.34      -17.43      
H           142.52      -26.23      -17.08      
H           146.96      -24.39      -21.48      
H           143.88      -27.41      -18.93      
H           139.53      -23.16      -13.2       
H           142.93      -20.21      -15.49      
H           141.13      -25.6       -13.53      
H           142.33      -26.35      -14.45      
H           142.77111   -24.91812   -13.5042    
H           140.37      -25.97      -16.09      
H           139.33      -25.29      -14.89      
H           139.59445   -24.40158   -16.40927   
H           144.56      -21.28      -20.02      
H           145.31      -22.2       -21.3       
H           143.65133   -22.58575   -20.79289   
H           146.27      -21.38      -18.46      
H           147.19      -22.3       -19.56      
H           146.98493   -22.8671    -17.97194   
H           138.46      -20.69      -12.12      
H           147.07      -26.36      -23.22      
S           140.97      -18.64      -13.86      
C           139.34      -20.3       -12.67      
C           139.58      -18.99      -12.86      
C           145.41      -30.45      -26.61      
C           146.14      -29.24      -26.52      
C           145.01      -30.77      -25.3       
N           146.66      -28.58      -27.52      
N           146.91      -27.35      -25.62      
O           147.08      -27.44      -26.98      
H           144.76      -30.52      -23.17      
H           144.43      -31.71      -25.11      
C           145.15      -30.08      -24.1       
C           146.25      -28.44      -25.31      
C           145.8       -28.86      -24.04      
C           137.1       -35.57      -39.44      
C           136.97      -36.25      -38.24      
S           138.69      -34.84      -39.65      
C           140.82      -35.05      -33.77      
C           141.33      -34.77      -34.98      
C           142.6       -34.14      -35.14      
C           143.24      -33.7       -33.98      
C           142.65      -33.91      -32.74      
C           141.41      -34.58      -32.65      
C           144.49      -32.82      -33.78      
C           144.5       -32.63      -32.29      
C           143.49      -33.41      -31.69      
C           139.61      -36.0       -33.82      
C           139.35      -35.98      -35.36      
C           140.37      -35.22      -35.99      
C           145.35      -32.0       -31.45      
C           145.2       -32.04      -30.08      
C           144.19      -32.74      -29.45      
C           143.32      -33.49      -30.28      
C           138.19      -36.4       -36.01      
C           138.14      -36.05      -37.41      
C           139.18      -35.36      -38.07      
C           140.35      -35.01      -37.38      
C           144.35      -31.53      -34.61      
C           145.83      -33.49      -34.2       
C           138.36      -35.4       -33.07      
C           139.93      -37.43      -33.33      
H           140.98      -34.81      -31.64      
H           142.98      -33.93      -36.16      
H           137.32      -36.73      -35.48      
H           141.04      -34.37      -37.87      
H           145.93      -31.23      -31.9       
H           142.44      -34.09      -29.89      
H           144.3       -31.73      -35.67      
H           145.29      -30.88      -34.52      
H           143.46897   -30.9475    -34.34059   
H           145.96      -33.22      -35.19      
H           146.68      -32.91      -33.74      
H           145.87948   -34.55039   -33.95258   
H           139.12      -37.92      -33.8       
H           140.79      -37.81      -33.83      
H           139.97279   -37.53696   -32.24611   
H           137.6       -36.1       -33.01      
H           138.61      -35.18      -32.12      
H           137.97235   -34.47933   -33.50611   
H           146.69      -30.54      -29.23      
H           136.06      -36.62      -37.9       
S           143.98      -32.49      -27.75      
C           145.91      -31.26      -29.05      
C           145.28      -31.29      -27.82      
C           134.21      -34.85      -42.72      
C           133.76      -35.5       -41.54      
C           135.5       -34.47      -42.73      
N           132.57      -36.07      -41.25      
N           134.06      -36.56      -39.59      
O           132.74      -36.7       -40.07      
H           137.46      -34.37      -41.68      
H           136.01      -33.96      -43.55      
C           136.4       -34.67      -41.6       
C           134.71      -35.78      -40.44      
C           136.07      -35.36      -40.48      
C           128.84      -34.59      -58.26      
C           129.9       -33.9       -57.95      
S           127.71      -34.84      -56.89      
C           131.47      -32.89      -52.16      
C           130.17      -33.3       -52.34      
C           129.43      -33.83      -51.27      
C           129.97      -33.89      -50.03      
C           131.3       -33.42      -49.8       
C           132.09      -32.89      -50.89      
C           129.29      -34.36      -48.76      
C           130.51      -34.35      -47.77      
C           131.66      -33.7       -48.36      
C           132.18      -32.68      -53.51      
C           130.98      -32.85      -54.47      
C           129.95      -33.39      -53.78      
C           130.62      -34.86      -46.49      
C           131.82      -34.65      -45.73      
C           132.92      -34.05      -46.36      
C           132.87      -33.6       -47.66      
C           130.95      -32.86      -55.91      
C           129.92      -33.5       -56.6       
C           128.81      -34.01      -55.87      
C           128.86      -33.95      -54.43      
C           128.74      -35.81      -48.91      
C           128.14      -33.37      -48.27      
C           133.35      -33.71      -53.79      
C           132.68      -31.17      -53.54      
H           133.12      -32.67      -50.7       
H           128.32      -34.08      -51.4       
H           131.89      -32.65      -56.45      
H           127.98      -34.29      -53.83      
H           129.87      -35.5       -46.05      
H           133.71      -33.23      -48.22      
H           128.21      -36.26      -48.07      
H           128.06      -35.83      -49.74      
H           129.54009   -36.49265   -49.19627   
H           127.18      -33.66      -48.73      
H           127.91      -33.52      -47.19      
H           128.35082   -32.30862   -48.40086   
H           133.66      -31.19      -53.06      
H           132.67      -30.81      -54.59      
H           132.03642   -30.53365   -52.93258   
H           133.83      -33.85      -52.81      
H           132.95      -34.71      -54.09      
H           134.02403   -33.49234   -54.6185    
H           131.27      -35.33      -43.61      
H           130.67      -33.76      -58.66      
S           134.2       -33.97      -45.28      
C           132.05      -34.92      -44.31      
C           133.33      -34.64      -43.92      
C           127.83      -36.61      -62.01      
C           128.47      -35.34      -62.06      
C           127.64      -37.11      -60.7       
N           128.93      -34.73      -63.1       
N           129.35      -33.55      -61.26      
O           129.47      -33.58      -62.65      
H           127.87      -36.92      -58.55      
H           127.36      -38.19      -60.6       
C           127.94      -36.37      -59.47      
C           128.71      -34.64      -60.86      
C           128.48      -35.11      -59.53      
C           125.61      -48.56      -73.03      
C           125.17      -48.53      -71.75      
S           126.55      -47.09      -73.29      
C           126.41      -44.36      -67.67      
C           126.76      -44.01      -68.97      
C           127.26      -42.75      -69.34      
C           127.35      -41.71      -68.44      
C           126.83      -42.04      -67.17      
C           126.35      -43.34      -66.81      
C           127.65      -40.23      -68.72      
C           127.31      -39.75      -67.3       
C           126.88      -40.81      -66.42      
C           125.69      -45.66      -67.53      
C           125.79      -46.15      -68.97      
C           126.63      -45.26      -69.72      
C           127.44      -38.49      -66.74      
C           127.25      -38.38      -65.33      
C           126.85      -39.46      -64.55      
C           126.58      -40.67      -65.12      
C           125.39      -47.27      -69.64      
C           125.72      -47.51      -70.93      
C           126.42      -46.58      -71.65      
C           126.93      -45.47      -71.05      
C           126.75      -39.66      -69.79      
C           129.14      -40.04      -69.06      
C           124.18      -45.48      -67.13      
C           126.55      -46.61      -66.63      
H           126.02      -43.57      -65.81      
H           127.61      -42.53      -70.37      
H           124.84      -48.04      -69.11      
H           127.56      -44.82      -71.6       
H           127.85      -37.66      -67.31      
H           126.25      -41.42      -64.44      
H           127.21      -38.84      -70.44      
H           126.49      -40.44      -70.41      
H           125.82958   -39.20336   -69.42611   
H           129.43      -40.74      -69.81      
H           129.48      -39.13      -69.47      
H           129.75292   -40.29238   -68.1947    
H           126.17      -47.58      -66.47      
H           127.53      -46.74      -67.04      
H           126.73005   -46.25711   -65.61454   
H           124.17      -44.78      -66.26      
H           123.78      -46.44      -66.92      
H           123.67774   -44.95652   -67.94352   
H           128.07      -36.34      -64.98      
H           124.51      -49.25      -71.4       
S           126.65      -38.97      -62.9       
C           127.63      -37.23      -64.51      
C           127.42      -37.4       -63.18      
C           124.08      -50.78      -76.54      
C           123.7       -51.17      -75.22      
C           124.94      -49.7       -76.5       
N           122.7       -51.93      -74.83      
N           123.7       -51.15      -73.0       
O           122.67      -51.86      -73.49      
H           126.12      -48.18      -75.68      
H           125.14      -49.22      -77.49      
C           125.48      -49.0       -75.43      
C           124.21      -50.46      -74.02      
C           125.16      -49.39      -74.15      
C           114.97      -51.57      -90.46      
C           115.3       -50.43      -89.77      
S           115.3       -53.04      -89.53      
C           118.31      -50.41      -84.52      
C           118.15      -51.71      -85.16      
C           118.76      -52.83      -84.48      
C           119.66      -52.65      -83.47      
C           119.88      -51.36      -82.89      
C           119.33      -50.25      -83.52      
C           120.53      -53.68      -82.67      
C           120.94      -52.85      -81.45      
C           120.73      -51.51      -81.76      
C           117.67      -49.32      -85.35      
C           117.05      -50.18      -86.46      
C           117.3       -51.58      -86.3       
C           121.7       -53.29      -80.34      
C           122.29      -52.3       -79.53      
C           122.15      -50.94      -79.94      
C           121.39      -50.46      -81.06      
C           116.32      -49.75      -87.5       
C           115.87      -50.71      -88.46      
C           116.02      -52.08      -88.25      
C           116.8       -52.52      -87.19      
C           121.65      -54.18      -83.55      
C           119.69      -54.91      -82.33      
C           118.72      -48.39      -85.99      
C           116.66      -48.49      -84.49      
H           119.51      -49.25      -83.11      
H           118.6       -53.77      -84.91      
H           116.29      -48.69      -87.81      
H           116.94      -53.58      -87.07      
H           121.9       -54.31      -80.04      
H           121.39      -49.39      -81.32      
H           121.75      -55.27      -83.41      
H           121.12      -54.15      -84.51      
H           122.51943   -53.52263   -83.55707   
H           119.17      -55.28      -83.26      
H           120.33      -55.69      -81.91      
H           118.88215   -54.77781   -81.61028   
H           117.06      -47.53      -84.1       
H           115.89      -48.26      -85.16      
H           116.28853   -49.11378   -83.67698   
H           119.35      -48.01      -85.13      
H           118.32      -47.57      -86.48      
H           119.43047   -48.94571   -86.60198   
H           123.17      -53.35      -77.7       
H           115.35      -49.54      -90.33      
S           122.96      -49.87      -78.83      
C           123.12      -52.44      -78.33      
C           123.47      -51.24      -77.81      
C           115.46      -52.53      -94.68      
C           114.46      -53.12      -93.85      
C           115.99      -51.56      -94.0       
N           113.62      -54.17      -94.04      
N           113.28      -53.44      -91.91      
O           112.83      -54.24      -92.94      
H           116.42      -50.24      -92.3       
H           116.66      -50.93      -94.59      
C           115.75      -51.09      -92.63      
C           114.24      -52.74      -92.45      
C           114.88      -51.67      -91.84      
C           122.49      -56.58      -109.14     
C           122.86      -55.45      -108.47     
S           121.71      -57.67      -107.99     
C           120.74      -53.88      -102.98     
C           120.46      -55.22      -103.4      
C           119.67      -56.1       -102.71     
C           119.03      -55.63      -101.62     
C           119.34      -54.32      -101.12     
C           120.27      -53.44      -101.77     
C           117.77      -56.15      -100.94     
C           117.6       -55.15      -99.79      
C           118.45      -54.05      -99.96      
C           121.55      -53.13      -104.02     
C           121.72      -54.22      -105.1      
C           121.01      -55.43      -104.67     
C           116.68      -55.23      -98.81      
C           116.61      -54.17      -97.92      
C           117.42      -53.03      -98.08      
C           118.29      -52.89      -99.21      
C           122.35      -54.15      -106.29     
C           122.31      -55.27      -107.16     
C           121.66      -56.47      -106.7      
C           120.96      -56.57      -105.51     
C           118.0       -57.54      -100.33     
C           116.56      -56.1       -101.9      
C           122.87      -52.68      -103.42     
C           120.84      -51.86      -104.63     
H           120.48      -52.43      -101.45     
H           119.53      -57.08      -103.07     
H           122.77      -53.24      -106.65     
H           120.36      -57.46      -105.29     
H           116.23      -56.19      -98.65      
H           118.83      -51.98      -99.3       
H           118.09      -58.27      -101.12     
H           117.16      -57.74      -99.68      
H           118.85585   -57.61845   -99.65958   
H           116.36      -55.11      -102.24     
H           115.64      -56.39      -101.45     
H           116.60978   -56.69741   -102.81034  
H           120.83      -51.03      -103.91     
H           121.34      -51.53      -105.5      
H           119.81072   -52.02326   -104.94943  
H           122.83      -52.16      -102.43     
H           123.45      -51.97      -104.12     
H           123.61393   -53.4717    -103.33127  
H           115.22      -54.89      -96.29      
H           123.26      -54.59      -108.87     
S           117.13      -51.87      -96.81      
C           115.87      -54.06      -96.7       
C           116.0       -52.95      -95.98      
C           121.41      -56.96      -113.41     
C           121.94      -55.72      -112.87     
C           121.32      -57.99      -112.5      
N           122.13      -54.5       -113.42     
N           122.76      -54.4       -111.27     
O           122.59      -53.72      -112.45     
H           121.46      -58.74      -110.39     
H           120.95      -58.98      -112.82     
C           121.69      -57.87      -111.13     
C           122.35      -55.65      -111.5      
C           122.16      -56.72      -110.54     
C           113.81      -57.76      -128.27     
C           113.77      -58.76      -127.4      
S           114.92      -56.44      -127.76     
C           116.73      -58.42      -122.03     
C           117.02      -57.36      -122.9      
C           117.93      -56.32      -122.54     
C           118.6       -56.41      -121.33     
C           118.25      -57.39      -120.41     
C           117.32      -58.39      -120.72     
C           119.34      -55.31      -120.56     
C           119.83      -56.16      -119.38     
C           119.05      -57.29      -119.19     
C           115.85      -59.47      -122.68     
C           115.55      -58.8       -123.99     
C           116.24      -57.55      -124.06     
C           120.64      -55.8       -118.34     
C           120.52      -56.48      -117.08     
C           119.71      -57.61      -116.92     
C           118.97      -58.09      -117.99     
C           114.74      -59.31      -125.02     
C           114.55      -58.52      -126.19     
C           115.27      -57.31      -126.29     
C           116.21      -56.89      -125.3      
C           118.23      -54.32      -120.24     
C           120.56      -54.77      -121.35     
C           114.52      -59.54      -121.92     
C           116.53      -60.83      -122.76     
H           117.19      -59.22      -120.08     
H           118.2       -55.54      -123.3      
H           114.27      -60.23      -124.83     
H           116.81      -55.96      -125.42     
H           121.1       -54.8       -118.33     
H           118.43      -59.05      -117.97     
H           117.88      -53.88      -121.16     
H           117.25      -54.76      -119.86     
H           118.55674   -53.56999   -119.5197   
H           120.16      -54.27      -122.18     
H           120.95      -53.99      -120.66     
H           121.28022   -55.5114    -121.69599  
H           116.64      -61.33      -121.76     
H           116.08      -61.45      -123.48     
H           117.58339   -60.78051   -123.03572  
H           114.68      -59.7       -120.8      
H           114.06      -60.5       -122.24     
H           113.88004   -58.6844    -122.13564  
H           121.83      -55.27      -115.65     
H           113.07      -59.58      -127.45     
S           119.85      -58.3       -115.3      
C           121.19      -56.19      -115.85     
C           120.97      -57.07      -114.82     
C           111.94      -57.9       -132.33     
C           111.95      -56.74      -131.48     
C           112.5       -59.0       -131.61     
N           111.57      -55.45      -131.79     
N           112.4       -55.44      -129.69     
O           111.73      -54.76      -130.66     
H           113.63      -59.75      -129.89     
H           112.67      -59.97      -132.08     
C           113.08      -58.89      -130.29     
C           112.5       -56.68      -130.18     
C           113.08      -57.76      -129.53     
H           109.27      25.52       18.28       
H           111.71      -57.81      -133.41     
