612

C           28.27       32.44       6.17        
C           28.02       31.63       5.09        
S           27.0        33.59       6.5         
C           22.84       32.51       1.81        
C           23.12       33.52       2.77        
C           22.18       34.55       3.01        
C           21.01       34.5        2.26        
C           20.78       33.5        1.26        
C           21.72       32.47       1.02        
C           19.76       35.33       2.48        
C           18.88       34.74       1.39        
C           19.43       33.63       0.75        
C           24.08       31.55       1.7         
C           25.06       32.13       2.74        
C           24.44       33.23       3.4         
C           17.61       35.2        0.92        
C           16.91       34.37       -0.01       
C           17.51       33.19       -0.57       
C           18.79       32.86       -0.21       
C           26.35       31.67       3.1         
C           26.83       32.08       4.38        
C           26.15       33.11       5.04        
C           25.02       33.72       4.52        
C           19.98       36.85       2.25        
C           19.0        34.98       3.77        
C           24.69       31.66       0.24        
C           23.69       30.1        2.06        
H           21.51       31.67       0.34        
H           22.39       35.18       3.84        
H           26.9        30.87       2.54        
H           24.54       34.55       5.08        
H           17.22       36.11       1.2         
H           19.26       31.96       -0.6        
H           20.94       37.17       2.71        
H           19.12       37.47       2.43        
H           20.1614     37.0314     1.19062     
H           18.64       33.96       3.82        
H           18.06       35.51       3.8         
H           19.51447    35.26504    4.6877      
H           23.0        29.8        1.28        
H           24.52       29.44       2.14        
H           23.24441    30.04887    3.05345     
H           23.93       31.42       -0.43       
H           25.52       31.03       0.06        
H           25.02743    32.65792    -0.03999    
H           15.07       35.58       -0.33       
H           28.66       30.84       4.79        
S           16.43       32.56       -1.82       
C           15.63       34.66       -0.58       
C           15.18       33.7        -1.48       
C           31.69       32.1        9.02        
C           30.91       33.29       8.92        
C           31.17       31.06       8.26        
N           31.09       34.57       9.38        
N           29.41       34.56       7.93        
O           30.23       35.31       8.69        
H           29.87       30.26       6.69        
H           31.66       30.1        8.33        
C           30.07       31.15       7.29        
C           29.83       33.35       7.98        
C           29.4        32.32       7.05        
C           45.91       28.52       16.85       
C           45.3        27.7        16.01       
S           44.84       29.8        17.35       
C           39.85       28.73       13.5        
C           40.34       29.72       14.41       
C           39.61       30.87       14.75       
C           38.49       31.21       13.95       
C           38.09       30.23       12.95       
C           38.73       28.99       12.75       
C           37.47       32.29       14.0        
C           36.72       32.07       12.68       
C           36.86       30.76       12.24       
C           40.9        27.59       13.32       
C           41.98       28.04       14.32       
C           41.62       29.26       14.95       
C           35.63       32.77       12.21       
C           34.65       32.19       11.36       
C           34.87       30.83       10.9        
C           36.07       30.2        11.3        
C           43.15       27.47       14.61       
C           43.99       28.06       15.59       
C           43.61       29.22       16.23       
C           42.4        29.81       15.96       
C           38.11       33.72       14.03       
C           36.46       32.08       15.18       
C           41.35       27.77       11.85       
C           40.27       26.19       13.59       
H           38.42       28.39       11.96       
H           39.83       31.44       15.62       
H           43.54       26.7        14.03       
H           42.23       30.74       16.42       
H           35.35       33.66       12.72       
H           36.35       29.16       10.98       
H           38.88       33.61       14.85       
H           37.38       34.44       14.29       
H           38.58358    33.94939    13.07543    
H           36.07       31.07       15.07       
H           35.63       32.72       15.1        
H           36.93307    32.20522    16.15397    
H           39.53       25.98       12.84       
H           41.03       25.44       13.54       
H           39.81781    26.13976    14.58051    
H           40.52       27.57       11.22       
H           41.41       28.8        11.77       
H           42.20831    27.1978     11.49787    
H           33.18       33.76       10.94       
H           45.84       26.91       15.57       
S           33.64       30.28       9.86        
C           33.49       32.74       10.76       
C           32.88       31.82       9.89        
C           49.68       28.05       18.9        
C           49.25       27.01       17.99       
C           49.05       29.23       18.82       
N           49.76       25.81       17.71       
N           47.87       26.15       16.5        
O           48.87       25.32       16.76       
H           47.23       30.3        18.25       
H           49.36       30.16       19.31       
C           47.8        29.35       18.08       
C           48.07       27.24       17.21       
C           47.2        28.4        17.4        
C           63.15       28.63       28.55       
C           62.34       29.68       28.41       
S           62.55       27.15       27.75       
C           57.11       29.38       25.26       
C           57.86       28.16       25.23       
C           57.58       27.03       24.44       
C           56.61       27.24       23.45       
C           55.8        28.35       23.53       
C           55.91       29.38       24.51       
C           56.32       26.36       22.19       
C           55.09       27.1        21.67       
C           54.82       28.23       22.45       
C           57.67       30.37       26.23       
C           59.05       29.76       26.54       
C           59.06       28.39       26.04       
C           54.27       26.66       20.65       
C           53.1        27.38       20.35       
C           52.85       28.58       21.19       
C           53.78       29.11       22.11       
C           60.16       30.29       27.2        
C           61.27       29.45       27.45       
C           61.22       28.05       27.1        
C           60.14       27.52       26.29       
C           55.92       24.98       22.77       
C           57.44       26.32       21.18       
C           56.77       30.44       27.47       
C           57.92       31.76       25.58       
H           55.14       30.15       24.53       
H           58.41       26.34       24.34       
H           60.08       31.29       27.63       
H           60.1        26.52       25.92       
H           54.55       25.84       20.02       
H           53.62       30.02       22.67       
H           56.87       24.48       23.13       
H           55.2        25.05       23.58       
H           55.55843    24.2285     22.06813    
H           58.0        25.34       21.24       
H           56.99       26.27       20.23       
H           58.09917    27.18253    21.27817    
H           57.03       32.54       25.64       
H           58.74       32.22       26.11       
H           58.30693    31.58087    24.57686    
H           56.67       31.45       27.77       
H           55.69       30.23       27.26       
H           57.10674    29.76652    28.25812    
H           51.92       26.24       18.88       
H           62.6        30.66       28.82       
S           51.36       29.28       20.69       
C           51.94       27.09       19.55       
C           50.98       28.02       19.57       
C           66.8        28.74       30.97       
C           66.23       27.54       30.6        
C           66.14       29.82       30.52       
N           66.67       26.35       30.92       
N           64.86       26.16       29.58       
O           65.8        25.47       30.31       
H           64.51       30.76       29.52       
H           66.37       30.77       30.85       
C           65.0        29.76       29.73       
C           65.12       27.43       29.74       
C           64.4        28.6        29.26       
C           82.26       32.47       34.55       
C           81.9        31.17       34.17       
S           80.93       33.17       35.34       
C           76.13       29.43       33.78       
C           76.26       30.59       34.48       
C           75.17       31.38       34.91       
C           73.94       30.96       34.49       
C           73.81       29.86       33.7        
C           74.87       29.03       33.4        
C           72.64       31.72       34.62       
C           71.67       30.75       34.02       
C           72.41       29.73       33.38       
C           77.43       28.75       33.38       
C           78.39       29.83       33.9        
C           77.69       30.9        34.42       
C           70.27       30.71       34.01       
C           69.68       29.8        33.06       
C           70.44       28.91       32.3        
C           71.83       28.85       32.48       
C           79.75       29.82       33.85       
C           80.47       30.97       34.13       
C           79.73       32.0        34.72       
C           78.36       32.03       34.81       
C           72.78       32.99       33.75       
C           72.27       32.03       36.08       
C           77.49       28.57       31.85       
C           77.77       27.39       34.08       
H           74.72       28.18       32.76       
H           75.32       32.27       35.54       
H           80.18       28.93       33.47       
H           77.88       32.96       35.23       
H           69.73       31.56       34.38       
H           72.37       28.2        31.84       
H           73.06       33.77       34.5        
H           73.66       33.01       33.13       
H           71.92187    33.22599    33.1207     
H           72.9        32.9        36.32       
H           71.28       32.28       36.06       
H           72.50225    31.27695    36.83305    
H           77.36       26.53       33.5        
H           78.88       27.35       34.31       
H           77.34226    27.272      35.0756     
H           76.62       27.99       31.58       
H           78.38       28.0        31.63       
H           77.53966    29.5278     31.33208    
H           67.56       30.28       33.2        
H           82.68       30.47       33.87       
S           69.47       28.04       31.04       
C           68.31       29.7        32.69       
C           68.04       28.82       31.66       
C           86.16       34.56       34.49       
C           86.09       33.12       34.52       
C           84.96       35.21       34.49       
N           87.07       32.28       34.47       
N           85.2        31.12       34.54       
O           86.55       31.05       34.5        
H           82.84       35.18       34.44       
H           85.03       36.3        34.43       
C           83.72       34.52       34.53       
C           84.82       32.38       34.51       
C           83.53       33.11       34.57       
C           98.8        43.48       28.62       
C           98.84       42.11       28.61       
S           97.45       44.1        29.58       
C           94.23       38.77       30.83       
C           94.17       40.14       31.02       
C           93.11       40.77       31.67       
C           92.12       39.96       32.28       
C           92.21       38.59       32.12       
C           93.25       37.95       31.38       
C           90.86       40.37       33.03       
C           90.3        38.94       33.38       
C           91.07       37.99       32.74       
C           95.55       38.39       30.17       
C           96.22       39.78       30.0        
C           95.44       40.77       30.61       
C           89.18       38.67       34.04       
C           88.72       37.32       33.98       
C           89.55       36.38       33.31       
C           90.78       36.67       32.74       
C           97.36       40.11       29.34       
C           97.71       41.49       29.25       
C           96.9        42.47       29.89       
C           95.81       42.13       30.73       
C           89.93       41.14       32.11       
C           91.13       41.13       34.32       
C           95.23       37.64       28.89       
C           96.48       37.6        31.18       
H           93.34       36.88       31.21       
H           93.24       41.82       31.98       
H           98.0        39.39       28.87       
H           95.07       42.85       31.11       
H           88.56       39.45       34.46       
H           91.43       35.91       32.31       
H           90.1        42.23       32.16       
H           88.93       41.11       32.56       
H           89.92281    40.75886    31.08883    
H           91.46       42.13       34.15       
H           90.18       41.2        34.86       
H           91.75853    40.58378    35.02335    
H           97.53       37.77       30.83       
H           96.41       38.17       32.12       
H           96.22471    36.55125    31.33179    
H           95.96       36.81       28.68       
H           94.38       37.05       29.18       
H           94.98503    38.26685    28.03259    
H           86.76       37.3        35.12       
H           99.61       41.54       28.13       
S           88.83       34.81       33.5        
C           87.51       36.72       34.53       
C           87.41       35.36       34.35       
C           101.07      46.87       26.98       
C           101.59      45.46       26.91       
C           99.8        46.96       27.5        
N           102.69      45.05       26.39       
N           101.46      43.3        27.05       
O           102.61      43.68       26.48       
H           98.08       46.09       28.43       
H           99.39       47.99       27.57       
C           99.1        45.86       28.03       
C           100.84      44.35       27.36       
C           99.58       44.52       28.04       
C           110.13      60.3        23.4        
C           109.49      60.11       24.56       
S           109.53      59.21       22.16       
C           105.79      55.35       25.64       
C           106.33      55.4        24.34       
C           106.11      54.39       23.38       
C           105.38      53.27       23.79       
C           104.85      53.24       25.1        
C           104.98      54.27       26.0        
C           105.4       51.84       23.22       
C           104.53      51.11       24.22       
C           104.15      51.98       25.24       
C           106.23      56.51       26.5        
C           107.12      57.36       25.52       
C           107.16      56.64       24.28       
C           104.08      49.76       24.21       
C           103.16      49.36       25.25       
C           102.89      50.26       26.27       
C           103.39      51.57       26.27       
C           107.92      58.44       25.71       
C           108.67      58.93       24.67       
C           108.5       58.38       23.35       
C           107.74      57.16       23.16       
C           106.92      51.33       23.22       
C           104.82      51.67       21.82       
C           107.18      55.97       27.57       
C           105.09      57.43       27.07       
H           104.59      54.23       27.02       
H           106.38      54.52       22.31       
H           107.92      59.03       26.63       
H           107.73      56.64       22.22       
H           104.38      49.0        23.46       
H           103.11      52.3        27.03       
H           107.61      51.79       22.54       
H           107.23      51.4        24.27       
H           107.02557   50.26729    23.00183    
H           105.52      51.89       21.01       
H           104.56      50.62       21.76       
H           103.91688   52.26491    21.68381    
H           105.43      58.35       27.48       
H           104.51      57.74       26.17       
H           104.47007   56.89864    27.79211    
H           107.16      56.59       28.46       
H           106.84      55.0        27.9        
H           108.20414   55.72478    27.28872    
H           102.85      47.22       24.86       
H           109.81      60.75       25.4        
S           101.93      49.49       27.54       
C           102.62      48.09       25.5        
C           101.81      48.01       26.6        
C           112.45      63.91       22.55       
C           112.34      63.46       23.88       
C           111.83      63.13       21.61       
N           112.93      63.85       25.02       
N           111.84      61.97       25.44       
O           112.61      62.94       25.97       
H           110.58      61.44       21.14       
H           111.76      63.43       20.55       
C           111.13      61.95       21.92       
C           111.69      62.21       24.18       
C           111.02      61.41       23.14       
C           120.37      76.72       15.63       
C           119.61      75.89       14.82       
S           120.37      76.31       17.27       
C           116.74      71.29       17.64       
C           117.45      72.1        18.5        
C           117.48      71.88       19.81       
C           116.82      70.77       20.28       
C           116.09      69.96       19.4        
C           115.97      70.23       18.08       
C           116.57      70.36       21.68       
C           115.73      69.12       21.55       
C           115.44      68.87       20.2        
C           116.98      71.62       16.16       
C           117.71      72.95       16.29       
C           118.09      73.13       17.68       
C           115.24      68.25       22.52       
C           114.47      67.14       22.13       
C           114.15      66.95       20.74       
C           114.65      67.82       19.74       
C           118.19      73.74       15.27       
C           118.99      74.88       15.68       
C           119.37      74.97       17.01       
C           118.96      74.14       18.01       
C           115.79      71.45       22.44       
C           117.88      69.94       22.37       
C           115.59      71.73       15.48       
C           117.89      70.64       15.32       
H           115.4       69.63       17.38       
H           118.1       72.46       20.58       
H           117.75      73.54       14.28       
H           119.44      74.26       19.0        
H           115.59      68.23       23.54       
H           114.5       67.62       18.66       
H           115.94      71.38       23.47       
H           116.34      72.4        22.23       
H           114.72033   71.47018    22.23145    
H           118.33      70.84       22.52       
H           117.71      69.44       23.36       
H           118.50908   69.33189    21.71995    
H           117.4       69.68       15.12       
H           118.2       71.22       14.38       
H           118.82462   70.37193    15.81267    
H           115.06      70.84       15.53       
H           115.81      71.95       14.38       
H           115.00459   72.527      15.93845    
H           113.79      66.08       23.91       
H           119.62      75.9        13.72       
S           113.03      65.6        20.51       
C           113.87      66.1        22.88       
C           113.18      65.11       22.2        
C           122.3       80.55       14.78       
C           121.29      79.97       14.0        
C           122.66      79.79       15.84       
N           120.69      80.49       12.89       
N           119.69      78.53       13.38       
O           119.73      79.61       12.56       
H           122.54      78.01       17.01       
H           123.38      80.16       16.52       
C           122.05      78.5        16.16       
C           120.75      78.67       14.27       
C           121.05      77.92       15.39       
C           130.74      94.51       12.19       
C           131.12      93.64       13.12       
S           129.43      93.92       11.14       
C           128.32      88.35       14.09       
C           127.86      89.19       13.08       
C           126.71      88.97       12.35       
C           126.08      87.82       12.72       
C           126.56      86.89       13.66       
C           127.63      87.18       14.47       
C           124.99      87.17       11.89       
C           124.75      85.88       12.67       
C           125.74      85.66       13.64       
C           129.54      89.05       14.79       
C           129.67      90.34       13.98       
C           128.69      90.39       13.02       
C           123.72      84.94       12.58       
C           123.72      83.81       13.41       
C           124.79      83.52       14.23       
C           125.78      84.5        14.44       
C           130.55      91.42       14.1        
C           130.35      92.52       13.22       
C           129.36      92.55       12.28       
C           128.54      91.46       12.17       
C           125.36      86.9        10.39       
C           123.73      88.0        11.8        
C           130.75      88.19       14.47       
C           129.38      89.4        16.31       
H           127.94      86.45       15.28       
H           126.36      89.6        11.56       
H           131.32      91.44       14.85       
H           127.81      91.36       11.42       
H           122.94      85.15       11.92       
H           126.54      84.35       15.25       
H           125.28      87.76       9.78        
H           126.37      86.66       10.36       
H           124.83509   86.08877    9.88554     
H           123.9       88.8        11.07       
H           122.96      87.33       11.34       
H           123.388     88.42378    12.74422    
H           130.19      90.09       16.61       
H           128.47      89.97       16.36       
H           129.44245   88.53953    16.97617    
H           130.48      87.2        14.81       
H           131.7       88.51       15.02       
H           130.98919   88.14075    13.40771    
H           121.79      82.74       12.92       
H           132.03      93.83       13.71       
S           124.59      82.08       15.2        
C           122.74      82.71       13.49       
C           123.01      81.78       14.47       
C           132.11      98.48       10.79       
C           132.21      98.09       12.17       
C           131.49      97.56       9.99        
N           132.87      98.67       13.15       
N           132.45      96.54       13.71       
O           132.92      97.79       14.18       
H           130.74      95.74       9.67        
H           131.54      97.74       8.92        
C           131.1       96.3        10.48       
C           131.98      96.74       12.55       
C           131.26      95.82       11.76       
C           135.13      112.99      3.96        
C           135.43      111.87      3.32        
S           134.16      112.8       5.35        
C           133.59      106.46      5.44        
C           133.02      107.6       6.15        
C           132.31      107.45      7.38        
C           132.09      106.14      7.84        
C           132.7       105.09      7.13        
C           133.4       105.19      5.94        
C           131.6       105.72      9.27        
C           131.9       104.21      9.17        
C           132.5       103.85      7.98        
C           134.5       106.91      4.29        
C           134.24      108.41      4.21        
C           133.51      108.78      5.39        
C           131.72      103.3       10.24       
C           132.14      102.0       9.93        
C           132.64      101.63      8.66        
C           132.9       102.57      7.69        
C           134.83      109.38      3.43        
C           134.8       110.73      3.87        
C           134.08      111.09      4.99        
C           133.39      110.1       5.73        
C           130.11      105.97      9.48        
C           132.37      106.21      10.51       
C           134.09      106.24      2.97        
C           136.01      106.61      4.45        
H           133.88      104.35      5.36        
H           131.95      108.36      7.88        
H           135.39      109.11      2.58        
H           132.86      110.4       6.57        
H           131.23      103.57      11.14       
H           133.29      102.28      6.76        
H           129.97      107.1       9.44        
H           129.72      105.65      10.45       
H           129.53315   105.59968   8.63253     
H           133.4       105.98      10.33       
H           132.23      105.55      11.4        
H           132.28687   107.24906   10.82865    
H           136.51      106.98      3.52        
H           136.42      107.27      5.25        
H           136.28951   105.55645   4.45        
H           134.36      105.24      2.73        
H           134.68      106.7       2.24        
H           133.00739   106.23297   2.84346     
H           131.75      101.0       11.82       
H           136.05      111.88      2.41        
S           132.89      99.88       8.55        
C           132.11      100.94      10.83       
C           132.32      99.77       10.24       
C           136.34      117.1       2.85        
C           136.96      115.96      2.31        
C           135.31      116.76      3.68        
N           137.9       115.82      1.41        
N           137.58      113.79      2.15        
O           138.28      114.55      1.23        
H           134.19      115.23      4.76        
H           134.76      117.52      4.22        
C           134.92      115.41      3.98        
C           136.67      114.63      2.73        
C           135.6       114.32      3.61        
C           139.56      133.26      0.22        
C           138.55      132.79      1.03        
S           140.5       131.91      -0.34       
C           137.67      126.91      2.12        
C           138.63      127.22      1.21        
C           139.44      126.16      0.68        
C           139.1       124.88      0.92        
C           137.99      124.6       1.78        
C           137.36      125.62      2.44        
C           139.76      123.59      0.53        
C           138.91      122.47      1.14        
C           137.91      123.14      1.95        
C           136.86      128.2       2.56        
C           137.7       129.34      1.84        
C           138.63      128.64      1.03        
C           138.86      121.17      0.99        
C           137.85      120.44      1.67        
C           137.0       121.07      2.62        
C           136.97      122.42      2.72        
C           137.55      130.7       1.9         
C           138.5       131.34      1.17        
C           139.48      130.71      0.43        
C           139.58      129.33      0.4         
C           141.21      123.71      1.12        
C           139.79      123.43      -0.98       
C           136.92      128.37      4.09        
C           135.39      128.12      2.11        
H           136.51      125.37      3.13        
H           140.28      126.43      0.05        
H           136.76      131.22      2.47        
H           140.48      128.9       -0.0        
H           139.6       120.6       0.36        
H           136.19      122.84      3.31        
H           141.64      124.53      0.71        
H           141.13      123.77      2.22        
H           141.85108   122.84833   0.93388     
H           140.27      124.41      -1.26       
H           140.34      122.64      -1.43       
H           138.77987   123.43683   -1.38951    
H           134.93      127.2       2.41        
H           134.93      128.96      2.61        
H           135.22932   128.18986   1.03417     
H           136.33      127.53      4.57        
H           136.5       129.35      4.31        
H           137.93297   128.36306   4.49241     
H           138.29      118.38      1.18        
H           137.94      133.44      1.64        
S           135.83      119.91      3.28        
C           137.65      119.03      1.72        
C           136.65      118.48      2.49        
C           140.7       137.11      -1.53       
C           139.43      136.91      -0.83       
C           141.56      136.1       -1.39       
N           138.35      137.72      -0.82       
N           137.72      135.64      -0.08       
O           137.35      136.96      -0.36       
H           141.98      134.12      -0.65       
H           142.61      136.18      -1.7        
C           141.18      134.84      -0.78       
C           138.99      135.62      -0.41       
C           139.92      134.5       -0.37       
H           14.1        33.43       -1.57       
H           140.79      137.81      -2.33       
