612

C           108.87      30.41       2.28        
C           107.78      30.69       3.05        
S           110.38      31.17       2.83        
C           108.42      33.77       8.29        
C           109.6       33.64       7.53        
C           110.71      34.23       7.99        
C           110.71      34.84       9.24        
C           109.55      34.92       10.06       
C           108.38      34.48       9.55        
C           111.92      35.14       10.12       
C           111.24      35.76       11.32       
C           109.83      35.53       11.38       
C           107.27      32.98       7.61        
C           107.96      32.59       6.3         
C           109.33      32.99       6.21        
C           111.86      36.09       12.48       
C           111.12      36.52       13.59       
C           109.68      36.37       13.62       
C           109.04      35.86       12.46       
C           107.36      31.93       5.27        
C           108.16      31.57       4.19        
C           109.51      31.91       4.15        
C           110.12      32.66       5.17        
C           112.74      36.28       9.54        
C           112.79      33.98       10.62       
C           106.02      33.84       7.25        
C           106.94      31.68       8.31        
H           107.49      34.56       10.14       
H           111.6       34.17       7.31        
H           106.39      31.62       5.44        
H           111.15      32.96       5.07        
H           112.98      36.24       12.54       
H           107.96      35.74       12.52       
H           113.34      35.96       8.7         
H           113.45      36.41       10.35       
H           112.15667   37.17901    9.34098     
H           112.11      33.29       11.13       
H           113.48      34.36       11.36       
H           113.42284   33.60314    9.81651     
H           105.96      31.36       7.93        
H           107.65      30.96       8.08        
H           106.84211   31.74293    9.39377     
H           105.5       34.12       8.14        
H           105.27      33.19       6.77        
H           106.28934   34.67638    6.605       
H           112.63      37.1        15.17       
H           106.78      30.23       2.87        
S           109.03      37.13       15.05       
C           111.61      37.01       14.86       
C           110.65      37.38       15.74       
C           109.65      26.74       0.01        
C           108.36      27.02       0.48        
C           110.56      27.76       0.19        
N           107.31      26.25       0.52        
N           106.82      28.19       1.51        
O           106.32      26.97       1.18        
H           111.17      29.63       0.99        
H           111.59      27.58       -0.15       
C           110.27      28.99       0.81        
C           108.09      28.25       1.16        
C           109.06      29.3        1.33        
C           116.68      13.17       -5.63       
C           116.94      13.79       -4.42       
S           115.1       13.64       -6.3        
C           113.95      18.66       -2.71       
C           113.2       17.83       -3.59       
C           111.99      18.24       -4.17       
C           111.6       19.57       -3.8        
C           112.39      20.34       -2.91       
C           113.6       19.89       -2.38       
C           110.31      20.34       -4.12       
C           110.49      21.6        -3.23       
C           111.76      21.6        -2.64       
C           115.12      17.88       -2.11       
C           115.07      16.61       -2.98       
C           113.99      16.62       -3.86       
C           109.62      22.67       -2.99       
C           110.03      23.66       -2.1        
C           111.34      23.64       -1.57       
C           112.26      22.62       -1.74       
C           116.06      15.62       -3.06       
C           115.99      14.76       -4.12       
C           114.87      14.76       -4.95       
C           113.84      15.67       -4.87       
C           109.04      19.62       -3.63       
C           109.98      20.75       -5.6        
C           114.98      17.62       -0.58       
C           116.44      18.67       -2.34       
H           114.16      20.4        -1.64       
H           111.5       17.69       -4.88       
H           116.95      15.68       -2.37       
H           113.07      15.73       -5.65       
H           108.56      22.73       -3.36       
H           113.29      22.73       -1.36       
H           108.88      18.62       -4.13       
H           108.1       20.14       -3.87       
H           109.06086   19.38359    -2.56615    
H           110.71      21.53       -5.93       
H           109.0       21.31       -5.59       
H           109.91055   19.9305     -6.31533    
H           116.72      19.45       -1.57       
H           117.25      17.92       -2.27       
H           116.43273   19.12815    -3.32901    
H           115.96      17.57       -0.12       
H           114.56      18.58       -0.26       
H           114.26487   16.81991    -0.38883    
H           108.27      24.99       -1.78       
H           117.82      13.53       -3.76       
S           111.59      24.95       -0.43       
C           109.3       24.84       -1.55       
C           110.01      25.65       -0.75       
C           119.35      10.24       -7.63       
C           119.83      11.27       -6.85       
C           118.0       10.23       -7.79       
N           121.09      11.6        -6.6        
N           119.71      13.16       -5.62       
O           120.99      12.8        -5.96       
H           116.04      11.2        -7.4        
H           117.58      9.41        -8.43       
C           117.08      11.27       -7.29       
C           118.97      12.25       -6.29       
C           117.52      12.29       -6.43       
C           128.43      4.96        -20.37      
C           127.06      4.8         -20.28      
S           129.01      5.43        -18.77      
C           123.52      5.88        -15.32      
C           124.96      5.9         -15.12      
C           125.51      6.12        -13.9       
C           124.73      6.64        -12.94      
C           123.29      6.6         -13.08      
C           122.69      6.2         -14.25      
C           125.15      7.43        -11.65      
C           123.78      7.47        -10.94      
C           122.71      7.1         -11.9       
C           123.19      5.56        -16.79      
C           124.62      5.28        -17.34      
C           125.6       5.53        -16.36      
C           123.45      8.17        -9.8        
C           122.08      8.46        -9.57       
C           121.09      8.09        -10.46      
C           121.34      7.34        -11.66      
C           125.07      4.88        -18.63      
C           126.44      4.94        -18.98      
C           127.38      5.22        -18.03      
C           126.96      5.48        -16.7       
C           125.73      8.84        -12.05      
C           126.18      6.64        -10.72      
C           122.58      6.85        -17.42      
C           122.44      4.27        -17.23      
H           121.62      6.11        -14.32      
H           126.55      6.01        -13.78      
H           124.41      4.54        -19.44      
H           127.69      5.68        -16.01      
H           124.17      8.57        -9.05       
H           120.53      7.06        -12.33      
H           126.54      8.58        -12.73      
H           124.91      9.49        -12.49      
H           126.10646   9.41863     -11.20646   
H           126.92      6.25        -11.35      
H           126.72      7.34        -10.09      
H           125.65398   5.82964     -10.2153    
H           122.38      4.47        -18.3       
H           123.02      3.35        -17.1       
H           121.45737   4.11448     -16.78464   
H           121.65      6.54        -17.96      
H           122.44      7.67        -16.62      
H           123.2513    7.41057     -18.07054   
H           122.07      9.51        -7.59       
H           126.49      4.53        -21.17      
S           119.53      8.73        -9.94       
C           121.53      9.17        -8.42       
C           120.16      9.32        -8.4        
C           131.42      4.82        -23.65      
C           130.06      5.16        -23.85      
C           131.75      4.61        -22.31      
N           129.34      5.37        -24.97      
N           127.87      5.28        -23.34      
O           127.99      5.52        -24.67      
H           131.16      4.36        -20.21      
H           132.8       4.4         -22.09      
C           130.8       4.67        -21.21      
C           129.07      5.07        -22.77      
C           129.45      4.87        -21.44      
C           140.19      0.46        -36.67      
C           139.19      1.32        -36.64      
S           141.04      0.37        -35.07      
C           136.74      3.95        -31.74      
C           137.98      3.27        -31.5       
C           138.44      3.08        -30.18      
C           137.51      3.37        -29.17      
C           136.32      4.06        -29.45      
C           135.94      4.45        -30.72      
C           137.62      3.1         -27.66      
C           136.17      3.6         -27.22      
C           135.49      4.16        -28.27      
C           136.34      3.9         -33.28      
C           137.67      3.3         -33.82      
C           138.52      2.83        -32.77      
C           135.66      3.53        -25.95      
C           134.42      4.13        -25.75      
C           133.76      4.77        -26.8       
C           134.27      4.74        -28.05      
C           137.9       2.89        -35.15      
C           138.93      1.95        -35.38      
C           139.87      1.51        -34.36      
C           139.66      1.96        -33.03      
C           138.73      3.98        -27.05      
C           137.88      1.58        -27.22      
C           136.02      5.29        -33.8       
C           135.12      2.99        -33.6       
H           134.94      4.78        -30.93      
H           139.29      2.44        -29.99      
H           137.37      3.28        -36.01      
H           140.31      1.59        -32.24      
H           136.11      2.9         -25.21      
H           133.77      5.23        -28.86      
H           139.35      3.49        -26.3       
H           139.4       4.27        -27.94      
H           138.34638   4.93904     -26.7019    
H           138.88      1.28        -27.37      
H           137.6       1.51        -26.2       
H           137.26842   0.90366     -27.81719   
H           134.31      3.76        -33.55      
H           135.08      2.55        -34.63      
H           134.98265   2.1731      -32.89154   
H           135.13      5.7         -33.33      
H           135.6       5.26        -34.78      
H           136.84279   5.984       -33.62829   
H           133.91      3.52        -23.65      
H           138.49      1.36        -37.47      
S           132.31      5.49        -26.25      
C           133.62      4.08        -24.58      
C           132.39      4.65        -24.72      
C           140.8       -2.75       -39.64      
C           140.01      -1.55       -40.0       
C           141.34      -2.7        -38.4       
N           139.39      -1.26       -41.11      
N           139.38      0.55        -39.77      
O           138.88      0.02        -40.97      
H           141.43      -1.83       -36.5       
H           141.78      -3.62       -37.98      
C           141.15      -1.63       -37.48      
C           139.97      -0.43       -39.11      
C           140.48      -0.52       -37.74      
C           135.55      -15.18      -49.31      
C           134.9       -14.02      -48.96      
S           136.97      -15.36      -48.2       
C           137.04      -9.8        -45.05      
C           137.87      -10.92      -45.22      
C           139.13      -11.07      -44.53      
C           139.5       -10.05      -43.6       
C           138.62      -8.97       -43.48      
C           137.43      -8.8        -44.17      
C           140.86      -9.72       -42.98      
C           140.61      -8.27       -42.48      
C           139.26      -7.93       -42.65      
C           135.85      -9.89       -46.02      
C           136.15      -11.27      -46.66      
C           137.31      -11.88      -46.16      
C           141.49      -7.32       -41.85      
C           140.9       -6.1        -41.45      
C           139.5       -5.92       -41.57      
C           138.63      -6.8        -42.22      
C           135.27      -11.89      -47.54      
C           135.63      -13.15      -48.08      
C           136.88      -13.66      -47.69      
C           137.77      -13.07      -46.79      
C           141.73      -9.66       -44.21      
C           141.22      -10.76      -41.97      
C           135.82      -8.73       -47.15      
C           134.49      -10.1       -45.29      
H           136.9       -7.86       -44.03      
H           139.68      -12.0       -44.64      
H           134.36      -11.34      -47.86      
H           138.64      -13.64      -46.46      
H           142.57      -7.48       -41.78      
H           137.58      -6.56       -42.38      
H           141.76      -10.68      -44.59      
H           142.75      -9.5        -43.77      
H           141.50164   -8.89663    -44.95379   
H           141.32      -11.72      -42.42      
H           142.23      -10.64      -41.54      
H           140.44508   -10.95541   -41.22877   
H           133.67      -10.03      -45.98      
H           134.39      -11.13      -44.86      
H           134.23898   -9.3266     -44.56409   
H           134.91      -8.79       -47.72      
H           135.7       -7.83       -46.52      
H           136.70136   -8.56783    -47.77048   
H           142.56      -4.98       -40.58      
H           133.93      -13.71      -49.34      
S           139.0       -4.38       -40.88      
C           141.44      -5.02       -40.71      
C           140.64      -3.96       -40.49      
C           133.68      -18.89      -50.66      
C           133.0       -17.99      -49.8       
C           134.78      -18.41      -51.18      
N           131.84      -18.13      -49.08      
N           132.78      -16.17      -48.51      
O           131.7       -16.99      -48.32      
H           136.28      -17.02      -51.24      
H           135.3       -18.97      -51.97      
C           135.36      -17.23      -50.8       
C           133.57      -16.75      -49.4       
C           134.87      -16.38      -49.82      
C           129.47      -30.96      -59.73      
C           130.79      -30.82      -59.41      
S           128.38      -30.51      -58.35      
C           132.52      -27.74      -54.5       
C           131.11      -27.89      -54.69      
C           130.21      -27.25      -53.95      
C           130.58      -26.15      -53.22      
C           131.93      -25.81      -53.11      
C           132.91      -26.66      -53.59      
C           129.69      -25.03      -52.63      
C           130.73      -23.96      -52.3       
C           132.07      -24.5       -52.54      
C           133.31      -28.48      -55.57      
C           132.17      -29.2       -56.29      
C           130.85      -28.81      -55.75      
C           130.56      -22.63      -51.89      
C           131.71      -21.87      -51.58      
C           132.97      -22.47      -51.73      
C           133.15      -23.75      -52.29      
C           132.24      -29.91      -57.44      
C           130.99      -30.34      -58.12      
C           129.78      -30.05      -57.43      
C           129.71      -29.31      -56.23      
C           128.87      -25.59      -51.35      
C           128.79      -24.47      -53.74      
C           134.15      -29.54      -54.91      
C           134.05      -27.6       -56.63      
H           133.96      -26.54      -53.35      
H           129.19      -27.47      -54.14      
H           133.21      -30.11      -57.86      
H           128.79      -29.06      -55.79      
H           129.58      -22.17      -51.97      
H           134.18      -24.2       -52.34      
H           128.33      -26.47      -51.64      
H           129.6       -26.06      -50.65      
H           128.37847   -24.77823   -50.81378   
H           128.04      -25.22      -53.95      
H           128.29      -23.57      -53.4       
H           129.35064   -24.26874   -54.65284   
H           134.67      -28.38      -57.15      
H           133.35      -27.11      -57.37      
H           134.73516   -26.82302   -56.29095   
H           134.5       -30.27      -55.67      
H           135.07      -29.05      -54.63      
H           133.69808   -30.00604   -54.0344    
H           131.01      -19.87      -51.03      
H           131.59      -31.16      -60.08      
S           134.3       -21.5       -51.27      
C           131.85      -20.5       -51.15      
C           133.16      -20.22      -50.98      
C           127.95      -31.57      -63.91      
C           129.23      -32.0       -63.49      
C           127.42      -30.77      -62.97      
N           130.18      -32.55      -64.26      
N           130.9       -32.35      -62.19      
O           131.16      -32.93      -63.41      
H           127.11      -30.09      -60.98      
H           126.38      -30.4       -63.2       
C           127.86      -30.61      -61.6       
C           129.74      -31.84      -62.16      
C           128.98      -31.23      -61.08      
C           119.5       -34.2       -78.04      
C           118.99      -33.37      -77.07      
S           120.89      -35.09      -77.48      
C           121.99      -32.27      -71.83      
C           122.63      -33.26      -72.68      
C           123.84      -33.89      -72.38      
C           124.53      -33.47      -71.3       
C           123.91      -32.56      -70.43      
C           122.64      -32.01      -70.6       
C           125.9       -33.87      -70.78      
C           125.97      -33.04      -69.54      
C           124.78      -32.41      -69.26      
C           120.75      -31.67      -72.43      
C           120.63      -32.51      -73.68      
C           121.74      -33.36      -73.84      
C           127.03      -33.1       -68.67      
C           126.95      -32.35      -67.5       
C           125.74      -31.71      -67.22      
C           124.66      -31.73      -68.07      
C           119.61      -32.53      -74.68      
C           119.82      -33.33      -75.88      
C           120.95      -34.14      -75.99      
C           121.9       -34.22      -74.93      
C           127.04      -33.52      -71.75      
C           126.02      -35.36      -70.37      
C           121.01      -30.17      -72.64      
C           119.58      -31.9       -71.42      
H           122.22      -31.3       -69.88      
H           124.2       -34.5       -73.16      
H           118.67      -32.09      -74.6       
H           122.82      -34.78      -75.11      
H           127.92      -33.74      -68.85      
H           123.7       -31.21      -67.73      
H           127.93      -33.87      -71.41      
H           126.94      -33.9       -72.72      
H           127.29259   -32.46187   -71.81827   
H           125.87      -35.95      -71.24      
H           127.02      -35.4       -70.02      
H           125.36315   -35.70939   -69.5734    
H           119.85      -31.33      -70.45      
H           118.74      -31.47      -71.92      
H           119.31142   -32.9399    -71.23406   
H           121.28      -29.71      -71.7       
H           120.05      -29.67      -72.82      
H           121.65016   -29.93845   -73.49128   
H           128.84      -32.81      -66.48      
H           117.99      -33.0       -77.14      
S           125.97      -30.77      -65.71      
C           127.94      -32.28      -66.43      
C           127.4       -31.64      -65.32      
C           118.1       -35.18      -82.13      
C           117.15      -34.91      -81.07      
C           119.35      -35.16      -81.67      
N           115.83      -34.79      -81.17      
N           116.51      -34.2       -79.08      
O           115.46      -34.39      -79.93      
H           120.83      -35.04      -80.24      
H           120.15      -35.23      -82.34      
C           119.77      -34.92      -80.37      
C           117.56      -34.44      -79.75      
C           118.91      -34.59      -79.32      
C           116.77      -39.94      -97.9       
C           117.93      -39.56      -97.36      
S           115.47      -39.96      -96.67      
C           118.48      -37.71      -91.65      
C           117.25      -38.41      -91.96      
C           116.19      -38.55      -91.02      
C           116.39      -38.05      -89.74      
C           117.62      -37.46      -89.43      
C           118.72      -37.31      -90.31      
C           115.53      -38.29      -88.53      
C           116.38      -37.54      -87.45      
C           117.62      -37.19      -87.98      
C           119.45      -37.82      -92.84      
C           118.54      -38.39      -93.91      
C           117.29      -38.71      -93.39      
C           116.05      -37.28      -86.2       
C           117.01      -36.6       -85.38      
C           118.25      -36.27      -85.9       
C           118.61      -36.58      -87.19      
C           118.87      -38.68      -95.22      
C           117.85      -39.09      -96.03      
C           116.59      -39.41      -95.46      
C           116.27      -39.13      -94.19      
C           115.58      -39.84      -88.14      
C           114.13      -37.78      -88.69      
C           120.71      -38.66      -92.54      
C           119.8       -36.43      -93.41      
H           119.68      -36.99      -89.97      
H           115.25      -39.07      -91.29      
H           119.83      -38.42      -95.65      
H           115.27      -39.52      -93.83      
H           115.04      -37.44      -85.83      
H           119.55      -36.43      -87.69      
H           114.94      -40.04      -87.3       
H           115.05      -40.3       -88.97      
H           116.59952   -40.2051    -88.016     
H           113.38      -38.5       -88.91      
H           113.91      -37.53      -87.69      
H           114.01533   -36.89844   -89.32071   
H           120.33      -36.63      -94.38      
H           118.86      -36.02      -93.66      
H           120.40711   -35.83684   -92.72613   
H           121.23      -38.22      -91.7       
H           121.47      -38.7       -93.3       
H           120.44701   -39.63581   -92.13168   
H           116.08      -36.7       -83.45      
H           118.75      -39.5       -97.99      
S           119.19      -35.44      -84.68      
C           116.88      -36.33      -83.99      
C           117.87      -35.58      -83.48      
C           115.83      -40.69      -102.14     
C           116.76      -39.71      -101.78     
C           115.23      -41.36      -101.1      
N           117.56      -38.97      -102.57     
N           117.86      -38.42      -100.35     
O           118.19      -38.25      -101.69     
H           115.08      -41.64      -98.94      
H           114.49      -42.19      -101.33     
C           115.49      -41.02      -99.73      
C           116.99      -39.36      -100.37     
C           116.39      -40.09      -99.29      
C           114.9       -44.7       -118.12     
C           114.92      -45.68      -117.11     
S           114.91      -43.1       -117.41     
C           115.06      -44.29      -111.32     
C           114.81      -43.17      -112.11     
C           114.66      -41.85      -111.65     
C           114.73      -41.71      -110.27     
C           114.86      -42.83      -109.46     
C           115.05      -44.12      -109.92     
C           114.43      -40.45      -109.45     
C           114.52      -40.93      -108.03     
C           114.76      -42.28      -108.09     
C           115.23      -45.64      -112.04     
C           114.91      -45.1       -113.46     
C           114.74      -43.68      -113.46     
C           114.35      -40.24      -106.84     
C           114.73      -40.81      -105.66     
C           115.01      -42.19      -105.72     
C           115.0       -42.97      -106.91     
C           114.88      -45.78      -114.61     
C           114.9       -45.13      -115.76     
C           114.67      -43.7       -115.8      
C           114.5       -42.99      -114.63     
C           112.97      -39.83      -109.62     
C           115.55      -39.34      -109.45     
C           114.17      -46.71      -111.55     
C           116.69      -46.1       -112.02     
H           115.11      -44.94      -109.27     
H           114.45      -41.06      -112.33     
H           114.91      -46.94      -114.6      
H           114.42      -41.96      -114.61     
H           114.23      -39.14      -106.83     
H           115.24      -44.0       -106.93     
H           112.85      -39.45      -110.68     
H           112.74      -38.99      -108.97     
H           112.14777   -40.50953   -109.39576  
H           116.38      -39.66      -108.75     
H           115.24      -38.43      -108.97     
H           115.93547   -39.09272   -110.43912  
H           117.1       -46.27      -112.95     
H           117.33      -45.33      -111.64     
H           116.92564   -47.00685   -111.46304  
H           114.32      -47.03      -110.44     
H           114.3       -47.65      -111.98     
H           113.15585   -46.34318   -111.70824  
H           114.94      -39.04      -104.25     
H           115.0       -46.69      -117.38     
S           115.49      -42.63      -104.08     
C           114.97      -40.12      -104.44     
C           115.39      -40.97      -103.47     
C           116.23      -44.65      -122.44     
C           116.28      -45.86      -121.63     
C           115.5       -43.71      -121.78     
N           116.77      -46.98      -122.02     
N           116.12      -47.11      -119.82     
O           116.77      -47.8       -120.84     
H           114.68      -42.85      -119.98     
H           115.35      -42.76      -122.23     
C           115.07      -43.77      -120.4      
C           115.8       -45.95      -120.19     
C           115.24      -44.78      -119.52     
C           122.58      -40.42      -137.27     
C           122.0       -39.53      -136.42     
S           122.48      -42.05      -136.59     
C           119.42      -41.26      -131.09     
C           120.21      -42.29      -131.69     
C           120.41      -43.56      -131.19     
C           119.66      -43.83      -130.03     
C           118.93      -42.83      -129.36     
C           118.83      -41.53      -129.81     
C           120.12      -44.94      -129.04     
C           119.04      -44.68      -127.94     
C           118.5       -43.39      -128.06     
C           119.22      -40.0       -131.91     
C           120.25      -40.27      -133.06     
C           120.71      -41.64      -132.92     
C           118.79      -45.41      -126.8      
C           117.99      -44.86      -125.73     
C           117.44      -43.57      -125.86     
C           117.78      -42.83      -127.01     
C           120.67      -39.49      -134.15     
C           121.41      -40.07      -135.22     
C           121.67      -41.47      -135.16     
C           121.42      -42.21      -133.93     
C           121.54      -44.58      -128.58     
C           120.17      -46.35      -129.62     
C           119.54      -38.69      -131.17     
C           117.83      -39.87      -132.57     
H           118.22      -40.79      -129.26     
H           120.86      -44.36      -131.79     
H           120.38      -38.46      -134.24     
H           121.59      -43.28      -133.84     
H           119.16      -46.38      -126.75     
H           117.4       -41.84      -127.12     
H           122.24      -44.84      -129.33     
H           121.6       -43.51      -128.52     
H           121.76751   -44.95429   -127.58188  
H           121.13      -46.59      -130.09     
H           120.09      -47.07      -128.85     
H           119.3806    -46.61313   -130.32406  
H           117.29      -39.02      -132.25     
H           118.06      -39.84      -133.68     
H           117.24201   -40.78386   -132.48499  
H           118.9       -38.84      -130.33     
H           119.33      -37.85      -131.86     
H           120.59402   -38.64668   -130.89567  
H           117.84      -46.35      -124.12     
H           122.03      -38.46      -136.54     
S           116.54      -42.97      -124.47     
C           117.58      -45.37      -124.47     
C           116.86      -44.48      -123.71     
C           124.62      -40.03      -141.25     
C           124.05      -38.93      -140.54     
C           124.43      -41.24      -140.64     
N           124.08      -37.66      -140.83     
N           123.07      -37.89      -138.85     
O           123.53      -37.0       -139.79     
H           123.61      -42.39      -138.97     
H           124.72      -42.16      -141.17     
C           123.79      -41.36      -139.36     
C           123.42      -39.1       -139.26     
C           123.31      -40.32      -138.57     
H           110.82      37.54       16.82       
H           125.2       -39.91      -142.16     
