612

C           102.92      37.81       11.45       
C           102.31      38.34       10.32       
S           101.74      38.1        12.79       
C           96.75       40.92       9.92        
C           97.15       40.64       11.23       
C           96.44       40.93       12.39       
C           95.2        41.55       12.2        
C           94.73       41.8        10.88       
C           95.44       41.52       9.67        
C           94.2        41.88       13.26       
C           93.12       42.52       12.45       
C           93.46       42.53       11.07       
C           97.8        40.37       8.91        
C           98.96       39.99       9.81        
C           98.51       40.08       11.13       
C           91.99       43.22       12.93       
C           91.06       43.73       12.0        
C           91.44       43.71       10.64       
C           92.56       43.04       10.14       
C           100.19      39.48       9.46        
C           101.01      38.91       10.52       
C           100.46      38.84       11.83       
C           99.27       39.48       12.13       
C           94.61       42.89       14.32       
C           93.61       40.64       14.03       
C           98.36       41.57       8.19        
C           97.28       39.21       8.02        
H           95.01       41.67       8.67        
H           96.8        40.72       13.37       
H           100.5       39.5        8.38        
H           98.83       39.54       13.14       
H           91.81       43.35       14.01       
H           92.77       42.9        9.08        
H           95.45       42.64       14.97       
H           93.77       43.09       15.02       
H           94.9476     43.79028    13.80656    
H           93.27       39.91       13.39       
H           92.67       40.87       14.51       
H           94.34813    40.16447    14.67586    
H           96.54       39.53       7.3         
H           98.13       38.79       7.42        
H           96.84724    38.40124    8.60883     
H           97.67       41.83       7.41        
H           99.24       41.47       7.62        
H           98.48652    42.44859    8.82259     
H           89.41       44.53       13.23       
H           102.8       38.35       9.35        
S           90.19       44.46       9.66        
C           89.81       44.38       12.21       
C           89.15       44.68       11.07       
C           106.99      36.35       12.13       
C           105.93      36.16       13.14       
C           106.58      37.07       11.05       
N           106.02      35.52       14.24       
N           103.84      36.29       14.0        
O           104.77      35.59       14.75       
H           105.1       38.15       9.99        
H           107.33      37.23       10.3        
C           105.3       37.59       10.91       
C           104.57      36.73       12.97       
C           104.28      37.4        11.77       
C           121.52      28.57       11.32       
C           121.27      29.86       11.07       
S           120.03      27.67       11.4        
C           115.71      32.33       10.56       
C           115.63      30.95       10.82       
C           114.49      30.23       10.99       
C           113.36      31.0        11.06       
C           113.42      32.43       10.77       
C           114.58      33.09       10.4        
C           111.91      30.63       11.31       
C           111.24      31.98       11.5        
C           112.07      33.0        11.02       
C           117.11      32.87       10.31       
C           117.9       31.61       10.56       
C           117.06      30.52       10.91       
C           109.95      32.31       11.98       
C           109.49      33.65       11.85       
C           110.35      34.63       11.32       
C           111.66      34.34       10.96       
C           119.28      31.47       10.66       
C           119.88      30.23       10.94       
C           119.06      29.11       11.05       
C           117.63      29.25       11.13       
C           111.74      29.76       12.58       
C           111.24      29.89       10.07       
C           117.35      34.03       11.35       
C           117.3       33.37       8.85        
H           114.69      34.11       10.11       
H           114.57      29.2        11.35       
H           119.91      32.35       10.37       
H           117.06      28.27       11.24       
H           109.25      31.51       12.4        
H           112.35      35.12       10.53       
H           112.12      28.69       12.56       
H           110.7       29.69       12.78       
H           112.14608   30.2291     13.47618    
H           111.22      30.68       9.27        
H           110.21      29.59       10.18       
H           111.86253   29.14014    9.58188     
H           116.88      34.35       8.68        
H           118.31      33.49       8.71        
H           116.85872   32.67962    8.13115     
H           118.29      34.47       11.02       
H           116.54      34.85       11.28       
H           117.35      33.63871    12.36735    
H           107.35      33.72       12.65       
H           122.07      30.56       11.01       
S           109.66      36.21       11.33       
C           108.23      34.26       12.28       
C           108.19      35.54       11.98       
C           125.1       26.05       11.42       
C           125.2       27.48       11.37       
C           123.86      25.51       11.61       
N           126.29      28.25       11.27       
N           124.46      29.63       11.15       
O           125.83      29.56       11.09       
H           121.71      25.87       11.78       
H           123.72      24.4        11.72       
C           122.69      26.37       11.57       
C           124.05      28.38       11.35       
C           122.76      27.81       11.45       
C           137.95      16.13       9.79        
C           136.79      15.72       10.37       
S           137.63      17.45       8.67        
C           131.67      18.92       10.23       
C           132.6       19.31       9.22        
C           132.51      20.49       8.41        
C           131.44      21.37       8.73        
C           130.53      21.01       9.77        
C           130.72      19.83       10.61       
C           131.02      22.73       8.13        
C           130.03      23.14       9.14        
C           129.57      22.05       9.94        
C           132.11      17.59       10.95       
C           133.4       17.31       10.25       
C           133.77      18.41       9.41        
C           129.32      24.33       9.26        
C           128.25      24.42       10.19       
C           127.81      23.34       10.88       
C           128.53      22.09       10.81       
C           134.33      16.32       10.54       
C           135.72      16.51       10.08       
C           135.95      17.56       9.16        
C           135.02      18.5        8.83        
C           130.55      22.53       6.71        
C           132.27      23.7        8.14        
C           130.96      16.62       10.62       
C           132.3       17.69       12.49       
H           130.07      19.67       11.48       
H           133.31      20.81       7.75        
H           134.12      15.5        11.22       
H           135.25      19.26       8.08        
H           129.63      25.27       8.81        
H           128.29      21.21       11.32       
H           131.48      22.5        6.07        
H           130.05      21.56       6.7         
H           129.86424   23.31372    6.38811     
H           133.09      23.26       7.74        
H           132.23      24.71       7.7         
H           132.74484   23.77796    9.11803     
H           131.39      17.47       13.12       
H           132.91      16.89       12.67       
H           132.63856   18.6563     12.86382    
H           130.41      16.47       11.57       
H           130.28      17.26       10.01       
H           131.15644   15.729      10.02366    
H           127.52      26.53       9.9         
H           136.7       14.93       11.06       
S           126.34      23.59       11.77       
C           127.37      25.55       10.38       
C           126.21      25.18       11.07       
C           141.81      13.94       9.58        
C           140.74      13.49       10.44       
C           141.65      15.25       9.15        
N           140.57      12.36       11.12       
N           138.66      13.44       11.19       
O           139.3       12.34       11.55       
H           140.44      16.93       8.75        
H           142.45      15.68       8.63        
C           140.42      16.01       9.31        
C           139.47      14.19       10.48       
C           139.25      15.47       9.85        
C           152.55      2.95        3.43        
C           152.37      4.25        2.95        
S           151.84      2.96        5.05        
C           149.12      8.78        5.57        
C           149.21      7.61        6.4         
C           148.56      7.43        7.61        
C           147.82      8.49        8.03        
C           147.58      9.65        7.2         
C           148.17      9.77        5.92        
C           147.05      8.58        9.36        
C           146.39      9.97        9.18        
C           146.71      10.54       7.92        
C           150.14      8.79        4.41        
C           150.58      7.34        4.52        
C           150.12      6.71        5.65        
C           145.43      10.48       10.03       
C           144.73      11.59       9.63        
C           145.08      12.18       8.36        
C           146.08      11.69       7.52        
C           151.38      6.61        3.64        
C           151.72      5.2         3.82        
C           151.34      4.7         5.03        
C           150.56      5.37        5.96        
C           148.04      8.49        10.55       
C           146.03      7.47        9.32        
C           151.27      9.82        4.62        
C           149.5       8.93        3.02        
H           147.93      10.51       5.24        
H           148.7       6.59        8.25        
H           151.66      7.16        2.72        
H           150.26      4.93        6.9         
H           145.06      9.99        10.89       
H           146.24      12.15       6.53        
H           147.61      7.97        11.43       
H           148.93      7.99        10.26       
H           148.37642   9.47779     10.86495    
H           146.57      6.48        9.31        
H           145.36      7.47        10.22       
H           145.32816   7.56826     8.49183     
H           150.32      8.91        2.29        
H           148.77      8.16        2.81        
H           148.95772   9.85188     2.80986     
H           150.97      10.85       4.54        
H           151.99      9.77        3.82        
H           151.85303   9.70058     5.53319     
H           142.9       11.77       10.98       
H           152.78      4.57        2.02        
S           143.99      13.52       7.99        
C           143.48      12.14       10.16       
C           143.06      13.19       9.43        
C           152.58      -1.01       1.38        
C           152.82      0.21        0.62        
C           152.65      -0.86       2.74        
N           152.88      0.41        -0.73       
N           152.91      2.41        0.34        
O           153.02      1.8         -0.89       
H           152.58      0.43        4.46        
H           152.58      -1.71       3.43        
C           152.71      0.43        3.35        
C           152.9       1.48        1.28        
C           152.73      1.67        2.71        
C           145.93      -14.07      -6.65       
C           145.49      -13.57      -5.48       
S           147.37      -13.16      -7.11       
C           148.22      -9.14       -2.16       
C           148.79      -9.4        -3.4        
C           149.91      -8.75       -3.84       
C           150.32      -7.63       -3.13       
C           149.74      -7.33       -1.85       
C           148.72      -8.14       -1.34       
C           151.43      -6.66       -3.61       
C           151.43      -5.81       -2.3        
C           150.37      -6.15       -1.35       
C           146.99      -10.05      -1.94       
C           146.86      -10.76      -3.27       
C           147.99      -10.48      -4.11       
C           152.2       -4.69       -2.06       
C           152.11      -4.07       -0.85       
C           151.07      -4.45       0.1         
C           150.26      -5.58       -0.1        
C           146.05      -11.77      -3.72       
C           146.28      -12.5       -4.91       
C           147.31      -12.12      -5.71       
C           148.17      -11.08      -5.34       
C           150.95      -5.72       -4.76       
C           152.78      -7.37       -3.97       
C           145.76      -9.1        -1.71       
C           147.32      -11.02      -0.78       
H           148.27      -8.07       -0.35       
H           150.44      -9.0        -4.82       
H           145.19      -12.03      -3.14       
H           149.09      -11.02      -5.88       
H           152.85      -4.33       -2.8        
H           149.57      -6.01       0.61        
H           151.0       -6.22       -5.77       
H           151.65      -4.89       -4.83       
H           149.94687   -5.32618    -4.59653    
H           152.56      -8.13       -4.76       
H           153.59      -6.84       -4.35       
H           153.14156   -7.98466    -3.14564    
H           147.18      -10.64      0.27        
H           146.7       -11.85      -0.88       
H           148.3027    -11.47625   -0.89933    
H           145.0       -9.72       -1.18       
H           146.03      -8.31       -0.96       
H           145.27946   -8.77713    -2.63355    
H           153.37      -2.21       -1.19       
H           144.59      -13.96      -5.03       
S           151.16      -3.35       1.48        
C           152.71      -2.82       -0.46       
C           152.41      -2.34       0.79        
C           143.94      -16.79      -9.49       
C           143.31      -16.4       -8.27       
C           145.28      -16.44      -9.66       
N           142.08      -16.62      -7.84       
N           143.14      -15.22      -6.38       
O           141.93      -15.82      -6.75       
H           147.07      -15.33      -8.86       
H           145.84      -16.75      -10.5       
C           145.96      -15.58      -8.68       
C           143.94      -15.46      -7.4        
C           145.34      -15.05      -7.52       
C           138.7       -20.96      -24.28      
C           139.95      -21.21      -23.81      
S           137.6       -20.55      -22.99      
C           141.76      -20.68      -18.09      
C           140.33      -20.6       -18.33      
C           139.45      -20.15      -17.37      
C           139.99      -19.98      -16.07      
C           141.35      -20.25      -15.75      
C           142.26      -20.49      -16.84      
C           139.19      -19.6       -14.78      
C           140.41      -19.38      -13.8       
C           141.67      -19.68      -14.45      
C           142.46      -21.1       -19.43      
C           141.25      -21.26      -20.36      
C           140.09      -20.84      -19.72      
C           140.5       -18.71      -12.59      
C           141.73      -18.49      -11.98      
C           142.92      -18.79      -12.65      
C           142.93      -19.4       -13.92      
C           141.33      -21.37      -21.67      
C           140.12      -21.17      -22.43      
C           138.9       -20.85      -21.8       
C           138.89      -20.64      -20.4       
C           138.25      -20.75      -14.23      
C           138.45      -18.27      -15.02      
C           143.06      -22.51      -19.16      
C           143.46      -20.07      -19.97      
H           143.35      -20.56      -16.62      
H           138.41      -19.9       -17.59      
H           142.25      -21.63      -22.19      
H           137.97      -20.33      -19.87      
H           139.6       -18.39      -12.06      
H           143.78      -19.55      -14.53      
H           137.38      -20.68      -14.85      
H           138.79      -21.61      -14.55      
H           138.03771   -20.78538   -13.16146   
H           137.52      -18.4       -15.54      
H           138.08      -17.99      -14.03      
H           139.04087   -17.49839   -15.51355   
H           144.43      -20.12      -19.49      
H           143.75      -20.39      -21.0       
H           143.15414   -19.0244    -19.93444   
H           144.07      -22.33      -18.71      
H           142.48      -22.96      -18.33      
H           143.11191   -23.17741   -20.02022   
H           141.19      -17.45      -10.13      
H           140.75      -21.5       -24.47      
S           144.32      -18.32      -11.73      
C           142.01      -17.84      -10.71      
C           143.35      -17.64      -10.48      
C           137.17      -20.83      -28.4       
C           138.59      -20.92      -28.17      
C           136.41      -20.75      -27.23      
N           139.6       -21.06      -28.98      
N           140.42      -20.84      -26.89      
O           140.68      -20.87      -28.22      
H           136.27      -20.9       -25.08      
H           135.33      -20.5       -27.31      
C           136.97      -20.88      -25.94      
C           139.12      -20.82      -26.83      
C           138.28      -20.81      -25.67      
C           130.08      -21.05      -43.49      
C           129.47      -20.65      -42.37      
S           131.55      -21.87      -43.07      
C           131.92      -20.63      -36.83      
C           132.72      -21.28      -37.83      
C           134.02      -21.68      -37.55      
C           134.44      -21.49      -36.27      
C           133.74      -20.81      -35.24      
C           132.44      -20.35      -35.55      
C           135.69      -22.09      -35.72      
C           135.68      -21.6       -34.26      
C           134.43      -20.9       -33.99      
C           130.53      -20.41      -37.29      
C           130.73      -20.6       -38.8       
C           131.93      -21.35      -39.05      
C           136.56      -21.82      -33.28      
C           136.31      -21.37      -31.98      
C           135.11      -20.65      -31.74      
C           134.11      -20.47      -32.72      
C           129.87      -20.43      -39.86      
C           130.23      -20.86      -41.17      
C           131.41      -21.55      -41.34      
C           132.31      -21.83      -40.32      
C           136.99      -21.49      -36.36      
C           135.71      -23.64      -35.68      
C           129.93      -19.0       -36.95      
C           129.6       -21.58      -36.8       
H           131.81      -19.87      -34.86      
H           134.67      -22.2       -38.26      
H           128.92      -19.86      -39.67      
H           133.26      -22.27      -40.5       
H           137.54      -22.24      -33.49      
H           133.16      -19.94      -32.51      
H           137.7       -21.56      -35.56      
H           137.39      -22.16      -37.03      
H           137.004     -20.46777   -36.73809   
H           135.69      -24.03      -36.65      
H           136.68      -23.83      -35.26      
H           135.01079   -24.13094   -35.0031    
H           128.63      -21.6       -37.28      
H           130.12      -22.5       -37.03      
H           129.45411   -21.54353   -35.72042   
H           129.95      -18.79      -35.84      
H           128.92      -19.04      -37.35      
H           130.44395   -18.18331   -37.45691   
H           138.04      -22.04      -30.81      
H           128.47      -20.13      -42.34      
S           134.97      -20.29      -30.01      
C           137.09      -21.54      -30.78      
C           136.53      -21.03      -29.66      
C           128.18      -21.1       -47.46      
C           129.57      -21.32      -47.37      
C           127.56      -20.88      -46.35      
N           130.44      -21.53      -48.35      
N           131.49      -21.62      -46.28      
O           131.56      -21.87      -47.61      
H           127.46      -20.72      -44.23      
H           126.5       -20.63      -46.42      
C           128.19      -20.78      -45.07      
C           130.24      -21.28      -46.1       
C           129.51      -20.96      -44.9       
C           118.49      -24.44      -60.45      
C           118.17      -24.7       -59.16      
S           120.21      -24.46      -60.67      
C           121.9       -23.51      -54.68      
C           122.5       -23.54      -55.9       
C           123.78      -23.03      -55.98      
C           124.5       -22.6       -54.87      
C           123.84      -22.56      -53.66      
C           122.51      -22.97      -53.56      
C           125.77      -21.66      -54.74      
C           125.98      -21.68      -53.25      
C           124.81      -22.12      -52.63      
C           120.4       -23.87      -54.79      
C           120.34      -24.33      -56.22      
C           121.59      -24.16      -56.88      
C           127.05      -21.28      -52.41      
C           126.93      -21.26      -50.97      
C           125.7       -21.69      -50.45      
C           124.65      -22.13      -51.25      
C           119.17      -24.61      -56.91      
C           119.26      -24.65      -58.27      
C           120.46      -24.5       -58.94      
C           121.69      -24.41      -58.24      
C           125.46      -20.31      -55.42      
C           126.97      -22.33      -55.42      
C           119.51      -22.61      -54.64      
C           120.12      -24.92      -53.73      
H           121.97      -22.77      -52.63      
H           124.28      -23.04      -56.94      
H           118.19      -24.73      -56.37      
H           122.63      -24.28      -58.76      
H           127.98      -21.02      -52.81      
H           123.68      -22.47      -50.83      
H           125.49      -20.35      -56.5       
H           124.38      -20.24      -55.27      
H           125.89642   -19.45861   -54.89772   
H           126.7       -22.58      -56.44      
H           127.8       -21.64      -55.51      
H           127.31507   -23.25478   -54.95761   
H           119.83      -24.42      -52.8       
H           119.21      -25.45      -54.05      
H           120.96413   -25.60404   -53.64268   
H           119.59      -22.07      -53.66      
H           118.49      -22.88      -54.67      
H           119.78846   -21.84424   -55.36399   
H           128.87      -20.56      -50.2       
H           117.16      -24.79      -58.73      
S           125.87      -21.78      -48.7       
C           127.94      -21.05      -49.98      
C           127.46      -21.17      -48.7       
C           116.14      -23.98      -64.12      
C           115.57      -24.45      -62.9       
C           117.42      -23.62      -63.94      
N           114.32      -24.83      -62.67      
N           115.43      -25.21      -60.75      
O           114.21      -25.35      -61.43      
H           119.25      -23.56      -62.83      
H           118.05      -23.27      -64.75      
C           118.23      -23.96      -62.81      
C           116.25      -24.65      -61.66      
C           117.65      -24.35      -61.66      
C           109.68      -18.79      -78.51      
C           111.0       -19.11      -78.27      
S           108.77      -18.69      -76.99      
C           113.4       -20.59      -72.99      
C           112.07      -20.38      -72.97      
C           111.26      -20.67      -71.85      
C           111.87      -21.2       -70.71      
C           113.26      -21.23      -70.64      
C           114.08      -20.94      -71.77      
C           111.23      -21.92      -69.56      
C           112.46      -22.19      -68.68      
C           113.66      -21.82      -69.36      
C           114.05      -20.36      -74.34      
C           112.84      -19.88      -75.1       
C           111.67      -19.92      -74.26      
C           112.54      -22.87      -67.45      
C           113.77      -23.12      -66.86      
C           114.91      -22.86      -67.66      
C           114.88      -22.17      -68.86      
C           112.64      -19.58      -76.43      
C           111.35      -19.35      -76.95      
C           110.24      -19.21      -76.07      
C           110.37      -19.52      -74.7       
C           110.61      -23.3       -70.02      
C           110.26      -21.03      -68.71      
C           114.58      -21.64      -75.05      
C           115.09      -19.2       -74.5       
H           115.21      -21.15      -71.81      
H           110.17      -20.69      -71.95      
H           113.49      -19.53      -77.06      
H           109.55      -19.44      -73.97      
H           111.65      -23.12      -66.85      
H           115.79      -21.98      -69.35      
H           109.68      -23.08      -70.52      
H           110.36      -23.87      -69.15      
H           111.26051   -23.92907   -70.62762   
H           110.74      -20.27      -68.16      
H           109.83      -21.67      -68.01      
H           109.38877   -20.66999   -69.25722   
H           116.06      -19.73      -74.53      
H           114.87      -18.75      -75.44      
H           115.07573   -18.44372   -73.71518   
H           115.57      -22.07      -74.78      
H           114.65      -21.48      -76.15      
H           113.83256   -22.42372   -74.92664   
H           113.43      -23.78      -64.74      
H           111.81      -19.18      -78.99      
S           116.4       -23.26      -66.82      
C           114.17      -23.56      -65.55      
C           115.52      -23.68      -65.37      
C           107.73      -18.53      -82.46      
C           108.86      -19.41      -82.18      
C           107.33      -17.82      -81.34      
N           109.5       -20.23      -82.96      
N           110.4       -20.51      -80.89      
O           110.37      -20.95      -82.2       
H           107.48      -17.46      -79.21      
H           106.47      -17.14      -81.4       
C           107.94      -17.97      -80.06      
C           109.51      -19.49      -80.92      
C           109.05      -18.74      -79.8       
C           103.4       -15.74      -98.29      
C           104.38      -16.53      -97.8       
S           102.33      -15.23      -96.99      
C           105.19      -18.2       -92.03      
C           104.05      -17.31      -92.2       
C           103.5       -16.71      -91.08      
C           103.97      -16.96      -89.82      
C           105.03      -17.94      -89.68      
C           105.64      -18.53      -90.78      
C           103.51      -16.35      -88.47      
C           104.49      -17.07      -87.55      
C           105.34      -17.98      -88.26      
C           105.92      -18.44      -93.31      
C           104.91      -17.84      -94.27      
C           103.8       -17.11      -93.68      
C           104.67      -16.88      -86.17      
C           105.61      -17.64      -85.5       
C           106.38      -18.59      -86.21      
C           106.21      -18.83      -87.56      
C           105.1       -17.67      -95.62      
C           104.32      -16.81      -96.4       
C           103.25      -16.15      -95.77      
C           102.97      -16.27      -94.39      
C           102.01      -16.63      -88.16      
C           103.88      -14.85      -88.51      
C           106.21      -19.95      -93.59      
C           107.15      -17.47      -93.51      
H           106.4       -19.27      -90.73      
H           102.75      -15.86      -91.23      
H           106.0       -18.13      -96.09      
H           102.11      -15.75      -93.86      
H           104.03      -16.19      -85.58      
H           106.79      -19.63      -88.1       
H           101.72      -15.98      -87.33      
H           101.39      -16.33      -89.05      
H           101.84571   -17.67736   -87.90672   
H           102.99      -14.31      -89.02      
H           103.92      -14.41      -87.53      
H           104.80376   -14.60613   -89.03469   
H           107.52      -17.48      -94.5       
H           106.79      -16.48      -93.36      
H           107.97121   -17.51956   -92.79498   
H           106.98      -20.31      -92.93      
H           106.54      -20.07      -94.63      
H           105.32067   -20.56141   -93.43715   
H           105.48      -16.92      -83.33      
H           105.14      -16.97      -98.39      
S           107.47      -19.4       -85.09      
C           106.03      -17.56      -84.04      
C           107.02      -18.4       -83.75      
C           102.97      -14.6       -102.57     
C           101.93      -14.36      -101.61     
C           104.02      -15.28      -102.05     
N           100.96      -13.5       -101.83     
N           100.99      -14.16      -99.75      
O           100.29      -13.41      -100.67     
H           104.97      -16.29      -100.42     
H           104.78      -15.54      -102.77     
C           104.14      -15.64      -100.65     
C           102.07      -14.68      -100.18     
C           103.23      -15.36      -99.67      
H           88.02       44.8        11.05       
H           102.77      -14.79      -103.61     
