612

C           116.29      15.09       20.22       
C           115.88      14.43       21.32       
S           115.36      16.57       19.94       
C           111.06      16.23       24.76       
C           111.36      17.03       23.62       
C           110.53      18.13       23.25       
C           109.44      18.45       24.04       
C           109.06      17.61       25.06       
C           109.84      16.46       25.47       
C           108.66      19.74       23.99       
C           107.63      19.53       25.14       
C           107.93      18.24       25.73       
C           112.08      15.05       24.86       
C           112.93      15.24       23.58       
C           112.57      16.51       22.97       
C           106.83      20.45       25.72       
C           106.24      20.13       26.94       
C           106.57      18.99       27.66       
C           107.44      18.03       27.02       
C           113.96      14.53       23.04       
C           114.73      14.99       21.9        
C           114.32      16.29       21.38       
C           113.23      17.04       21.81       
C           107.94      19.93       22.64       
C           109.62      20.92       24.42       
C           111.47      13.62       24.87       
C           113.03      15.25       26.0        
H           109.49      15.77       26.22       
H           110.74      18.76       22.33       
H           114.19      13.54       23.46       
H           112.95      17.96       21.25       
H           106.68      21.46       25.4        
H           107.81      17.16       27.57       
H           108.67      19.88       21.81       
H           107.35      20.89       22.79       
H           107.18422   19.1601     22.48461    
H           110.26      20.63       25.24       
H           109.16      21.83       24.84       
H           110.23868   21.25684    23.58821    
H           112.47      15.24       26.95       
H           113.84      14.52       25.93       
H           113.60961   16.17309    26.00716    
H           111.01      13.51       25.82       
H           112.24      12.89       24.68       
H           110.66731   13.44952    24.15255    
H           105.26      22.0        27.41       
H           116.23      13.5        21.66       
S           105.68      18.9        29.2        
C           105.5       21.0        27.75       
C           104.95      20.47       28.88       
C           119.76      14.33       17.54       
C           119.3       13.33       18.44       
C           118.97      15.47       17.62       
N           119.78      12.1        18.6        
N           117.84      12.46       19.79       
O           118.79      11.55       19.45       
H           117.55      16.72       18.38       
H           119.26      16.3        16.99       
C           117.89      15.68       18.46       
C           118.11      13.59       19.23       
C           117.34      14.78       19.28       
C           132.45      15.85       6.75        
C           131.28      16.6        6.73        
S           132.46      14.78       8.14        
C           127.1       16.28       11.23       
C           128.05      15.16       11.15       
C           127.97      14.09       11.99       
C           126.85      13.96       12.81       
C           125.92      14.98       12.78       
C           126.04      16.14       12.04       
C           126.46      12.9        13.81       
C           125.06      13.4        14.23       
C           124.82      14.69       13.67       
C           127.33      17.32       10.14       
C           128.56      16.68       9.43        
C           129.06      15.54       10.17       
C           124.17      12.9        15.2        
C           123.06      13.67       15.65       
C           122.86      14.95       15.03       
C           123.69      15.47       14.05       
C           129.15      17.05       8.27        
C           130.38      16.41       7.9         
C           130.86      15.41       8.7         
C           130.29      14.92       9.8         
C           127.27      12.59       15.14       
C           126.24      11.66       12.95       
C           127.67      18.73       10.66       
C           126.13      17.21       9.19        
H           125.23      16.86       12.1        
H           128.71      13.31       11.98       
H           128.7       17.83       7.62        
H           130.77      14.16       10.29       
H           124.41      11.96       15.67       
H           123.54      16.46       13.7        
H           128.19      12.02       14.96       
H           126.66      12.02       15.82       
H           127.57388   13.45218    15.73363    
H           125.86      12.07       12.03       
H           125.4       11.06       13.35       
H           127.13834   11.06111    12.80028    
H           126.38      17.57       8.2         
H           125.91      16.13       9.03        
H           125.27835   17.80468    9.52038     
H           126.88      19.15       11.23       
H           128.47      18.64       11.41       
H           127.99253   19.47321    9.93081     
H           122.03      12.42       17.07       
H           130.96      17.21       5.88        
S           121.39      15.64       15.78       
C           122.0       13.38       16.61       
C           120.97      14.25       16.71       
C           135.9       15.83       3.92        
C           134.62      16.29       3.52        
C           135.97      15.48       5.29        
N           134.19      16.63       2.32        
N           132.51      16.7        3.78        
O           132.85      16.91       2.51        
H           135.03      15.26       7.24        
H           136.91      15.24       5.73        
C           134.83      15.44       6.2         
C           133.53      16.27       4.42        
C           133.61      15.76       5.81        
C           148.09      11.36       -6.23       
C           148.07      11.19       -4.87       
S           146.73      12.33       -6.75       
C           143.84      13.16       -1.12       
C           143.64      13.6        -2.48       
C           142.64      14.41       -2.86       
C           141.77      14.78       -1.91       
C           141.82      14.25       -0.63       
C           142.89      13.46       -0.21       
C           140.46      15.6        -2.13       
C           139.87      15.48       -0.74       
C           140.6       14.58       0.08        
C           145.09      12.31       -0.95       
C           145.48      12.21       -2.42       
C           144.62      12.96       -3.3        
C           138.72      16.04       -0.28       
C           138.3       15.65       1.01        
C           139.1       14.83       1.85        
C           140.29      14.27       1.41        
C           146.55      11.56       -2.85       
C           146.85      11.59       -4.23       
C           146.05      12.33       -5.12       
C           144.93      12.93       -4.67       
C           139.7       14.84       -3.27       
C           140.81      17.07       -2.52       
C           144.77      10.92       -0.35       
C           146.17      13.11       -0.18       
H           142.93      13.15       0.85        
H           142.53      14.69       -3.86       
H           147.18      11.0        -2.2        
H           144.22      13.4        -5.37       
H           138.12      16.67       -0.89       
H           140.82      13.51       2.03        
H           140.15      15.12       -4.21       
H           139.8       13.79       -3.26       
H           138.65457   15.11736    -3.40512    
H           141.35      16.96       -3.48       
H           139.99      17.72       -2.73       
H           141.569     17.48203    -1.85497    
H           146.96      12.41       -0.14       
H           146.44      14.0        -0.77       
H           145.87045   13.33292    0.84405     
H           145.67      10.38       -0.05       
H           144.27      11.05       0.6         
H           144.13356   10.29787    -0.97928    
H           136.38      16.58       1.12        
H           148.84      10.63       -4.3        
S           138.27      14.5        3.37        
C           137.15      16.13       1.7         
C           137.03      15.69       3.0         
C           150.55      9.98        -9.51       
C           150.68      9.29        -8.24       
C           149.7       11.01       -9.56       
N           151.34      8.23        -7.83       
N           150.02      8.98        -6.16       
O           150.89      8.03        -6.56       
H           148.05      12.13       -8.84       
H           149.43      11.55       -10.51      
C           148.83      11.43       -8.53       
C           149.86      9.8         -7.18       
C           148.96      10.88       -7.29       
C           150.42      3.51        -23.46      
C           150.51      4.84        -23.5       
S           151.47      2.71        -22.3       
C           152.59      7.79        -18.64      
C           152.93      6.41        -18.65      
C           153.52      5.76        -17.52      
C           153.59      6.48        -16.32      
C           153.25      7.8         -16.34      
C           153.01      8.49        -17.49      
C           153.72      5.9         -14.95      
C           153.46      7.18        -14.15      
C           153.15      8.27        -14.96      
C           151.79      8.27        -19.87      
C           152.01      7.03        -20.73      
C           152.52      5.93        -19.99      
C           153.13      7.1         -12.79      
C           152.4       8.21        -12.3       
C           152.18      9.36        -13.11      
C           152.65      9.52        -14.43      
C           151.39      6.8         -21.96      
C           151.25      5.4         -22.38      
C           151.81      4.3         -21.57      
C           152.49      4.6         -20.39      
C           155.15      5.35        -14.79      
C           152.66      4.77        -14.7       
C           152.49      9.49        -20.53      
C           150.32      8.62        -19.56      
H           152.67      9.49        -17.47      
H           153.78      4.7         -17.5       
H           150.81      7.54        -22.5       
H           152.79      3.83        -19.69      
H           153.33      6.25        -12.11      
H           152.3       10.41       -15.03      
H           155.11      4.33        -15.21      
H           155.7       5.98        -15.57      
H           155.5321    5.44372     -13.77348   
H           152.71      3.9         -15.32      
H           152.74      4.34        -13.71      
H           151.64287   5.15712     -14.76072   
H           150.09      9.51        -20.11      
H           149.66      7.83        -19.91      
H           150.0494    8.84075     -18.52746   
H           152.41      10.31       -19.82      
H           151.93      9.68        -21.46      
H           153.5245    9.24369     -20.76927   
H           151.81      7.64        -10.15      
H           149.91      5.44        -24.19      
S           151.23      10.5        -12.21      
C           151.77      8.34        -10.98      
C           151.26      9.53        -10.74      
C           148.54      0.97        -26.58      
C           149.2       2.22        -26.88      
C           148.52      0.64        -25.25      
N           149.34      2.85        -28.01      
N           150.32      4.14        -26.39      
O           149.96      4.05        -27.79      
H           148.91      1.17        -23.17      
H           148.0       -0.23       -24.93      
C           149.15      1.46        -24.24      
C           149.8       3.02        -25.85      
C           149.84      2.64        -24.48      
C           136.77      -5.91       -35.64      
C           137.66      -4.99       -36.11      
S           137.4       -6.52       -34.08      
C           142.75      -3.17       -33.29      
C           142.09      -4.22       -32.66      
C           142.57      -4.78       -31.48      
C           143.55      -4.15       -30.78      
C           144.23      -3.07       -31.39      
C           143.86      -2.56       -32.68      
C           143.83      -4.24       -29.26      
C           144.98      -3.25       -29.17      
C           145.24      -2.54       -30.45      
C           141.96      -2.68       -34.5       
C           140.85      -3.76       -34.58      
C           140.9       -4.63       -33.42      
C           145.58      -2.76       -28.04      
C           146.52      -1.73       -28.16      
C           146.87      -1.12       -29.46      
C           146.18      -1.56       -30.63      
C           139.87      -3.88       -35.59      
C           138.84      -4.75       -35.37      
C           138.83      -5.56       -34.18      
C           139.86      -5.57       -33.24      
C           144.42      -5.61       -28.88      
C           142.63      -3.9        -28.4       
C           142.87      -2.62       -35.74      
C           141.2       -1.35       -34.25      
H           144.22      -1.65       -33.16      
H           141.92      -5.52       -30.98      
H           139.74      -3.22       -36.5       
H           139.74      -6.32       -32.39      
H           145.34      -3.19       -27.08      
H           146.41      -1.22       -31.56      
H           143.75      -6.41       -29.14      
H           144.58      -5.68       -27.77      
H           145.34023   -5.79681    -29.43352   
H           141.92      -4.81       -28.6       
H           142.97      -3.87       -27.34      
H           142.07784   -3.03332    -28.76345   
H           140.61      -1.2        -35.15      
H           140.56      -1.44       -33.34      
H           141.77221   -0.43736    -34.08341   
H           142.48      -2.02       -36.51      
H           143.81      -2.12       -35.4       
H           143.18072   -3.57383    -36.16633   
H           147.05      -1.37       -26.12      
H           137.49      -4.47       -37.04      
S           148.01      0.17        -29.26      
C           147.27      -1.04       -27.14      
C           147.94      0.02        -27.53      
C           132.95      -7.46       -37.39      
C           133.82      -6.59       -38.11      
C           133.39      -7.71       -36.15      
N           133.84      -6.24       -39.42      
N           135.76      -5.46       -38.52      
O           135.08      -5.63       -39.68      
H           134.81      -7.49       -34.61      
H           132.77      -8.3        -35.46      
C           134.64      -7.31       -35.59      
C           135.17      -6.17       -37.58      
C           135.59      -6.49       -36.26      
C           123.37      -18.64      -43.56      
C           123.56      -18.63      -42.22      
S           123.78      -17.03      -44.23      
C           125.72      -13.74      -39.27      
C           125.14      -13.41      -40.55      
C           125.42      -12.22      -41.23      
C           126.22      -11.3       -40.66      
C           126.68      -11.53      -39.35      
C           126.33      -12.67      -38.62      
C           126.93      -10.14      -41.3       
C           127.95      -9.82       -40.18      
C           127.73      -10.57      -39.03      
C           125.41      -15.22      -38.85      
C           124.68      -15.71      -40.11      
C           124.6       -14.66      -41.09      
C           128.93      -8.93       -40.18      
C           129.88      -8.83       -39.16      
C           129.75      -9.65       -38.02      
C           128.64      -10.54      -37.93      
C           124.26      -17.02      -40.34      
C           123.87      -17.36      -41.67      
C           123.91      -16.32      -42.66      
C           124.23      -15.06      -42.36      
C           125.91      -8.96       -41.44      
C           127.66      -10.51      -42.64      
C           124.6       -15.38      -37.59      
C           126.79      -15.92      -38.65      
H           126.79      -12.89      -37.63      
H           125.15      -12.09      -42.22      
H           124.26      -17.71      -39.5       
H           124.3       -14.37      -43.19      
H           129.02      -8.26       -41.0       
H           128.56      -11.26      -37.11      
H           125.32      -8.94       -40.47      
H           126.45      -8.1        -41.64      
H           125.20681   -8.9887     -42.27235   
H           127.15      -10.95      -43.43      
H           128.05      -9.54       -42.92      
H           128.48073   -11.18897   -42.4087    
H           127.3       -15.52      -37.77      
H           126.58      -16.99      -38.4       
H           127.47875   -15.80052   -39.48633   
H           124.9       -16.26      -36.99      
H           124.84      -14.6       -36.9       
H           123.52321   -15.26036   -37.70964   
H           131.26      -7.2        -39.8       
H           123.65      -19.53      -41.6       
S           131.05      -9.36       -36.85      
C           131.01      -7.95       -39.0       
C           131.77      -8.08       -37.86      
C           122.69      -21.93      -46.36      
C           123.36      -22.14      -45.09      
C           122.27      -20.67      -46.57      
N           123.8       -23.28      -44.62      
N           123.89      -21.77      -42.96      
O           124.01      -23.11      -43.26      
H           122.24      -18.63      -45.93      
H           121.72      -20.36      -47.49      
C           122.64      -19.59      -45.69      
C           123.56      -21.13      -44.1       
C           123.29      -19.75      -44.5       
C           115.5       -33.54      -55.72      
C           115.79      -33.79      -54.4       
S           116.22      -32.0       -56.26      
C           118.73      -29.69      -50.91      
C           118.56      -29.39      -52.28      
C           119.13      -28.2       -52.78      
C           119.83      -27.37      -51.95      
C           119.94      -27.69      -50.57      
C           119.43      -28.88      -50.05      
C           120.52      -26.05      -52.23      
C           121.2       -25.82      -50.82      
C           120.56      -26.6       -49.88      
C           118.37      -31.16      -50.66      
C           117.63      -31.49      -52.01      
C           117.88      -30.42      -52.99      
C           121.93      -24.73      -50.48      
C           121.99      -24.33      -49.09      
C           121.4       -25.16      -48.18      
C           120.69      -26.33      -48.55      
C           116.96      -32.66      -52.4       
C           116.5       -32.73      -53.75      
C           116.73      -31.65      -54.65      
C           117.38      -30.46      -54.3       
C           119.41      -25.02      -52.59      
C           121.63      -26.26      -53.33      
C           117.38      -31.35      -49.46      
C           119.63      -32.11      -50.68      
H           119.49      -29.21      -49.02      
H           119.02      -27.98      -53.82      
H           116.82      -33.54      -51.74      
H           117.54      -29.68      -55.03      
H           122.25      -24.06      -51.25      
H           120.23      -26.91      -47.78      
H           118.75      -25.46      -53.32      
H           118.71      -24.85      -51.82      
H           119.78386   -24.04657   -52.90742   
H           121.08      -26.29      -54.31      
H           122.46      -25.52      -53.39      
H           122.212     -27.16534   -53.15755   
H           120.2       -32.04      -49.76      
H           119.37      -33.15      -50.69      
H           120.37322   -31.9099    -51.45181   
H           117.95      -31.15      -48.57      
H           117.17      -32.38      -49.43      
H           116.47746   -30.73883   -49.46      
H           122.86      -22.33      -49.14      
H           115.48      -34.74      -53.88      
S           121.54      -24.41      -46.57      
C           122.43      -23.06      -48.54      
C           122.5       -23.06      -47.21      
C           113.72      -36.06      -58.93      
C           114.08      -36.6       -57.61      
C           113.99      -34.67      -58.97      
N           113.92      -37.79      -57.21      
N           114.75      -36.58      -55.57      
O           114.39      -37.83      -55.97      
H           114.66      -32.8       -58.07      
H           113.8       -34.14      -59.92      
C           114.48      -33.84      -57.91      
C           114.51      -35.76      -56.57      
C           114.82      -34.37      -56.72      
C           112.67      -41.69      -74.03      
C           111.9       -40.65      -73.58      
S           113.22      -42.71      -72.72      
C           111.1       -39.28      -67.75      
C           111.83      -40.49      -68.01      
C           112.41      -41.34      -67.05      
C           112.4       -40.79      -65.75      
C           111.78      -39.51      -65.48      
C           111.08      -38.83      -66.46      
C           112.95      -41.42      -64.47      
C           112.84      -40.17      -63.58      
C           112.08      -39.1       -64.12      
C           110.62      -38.59      -69.05      
C           111.16      -39.6       -70.06      
C           111.89      -40.69      -69.49      
C           113.31      -39.99      -62.26      
C           113.16      -38.69      -61.66      
C           112.53      -37.64      -62.3       
C           111.89      -37.9       -63.48      
C           111.09      -39.57      -71.45      
C           111.79      -40.6       -72.19      
C           112.6       -41.57      -71.58      
C           112.68      -41.59      -70.2       
C           114.44      -41.75      -64.84      
C           111.97      -42.57      -64.03      
C           111.25      -37.25      -69.38      
C           109.05      -38.58      -69.21      
H           110.73      -37.84      -66.26      
H           113.11      -42.14      -67.42      
H           110.44      -38.81      -71.94      
H           113.34      -42.25      -69.66      
H           113.81      -40.83      -61.69      
H           111.27      -37.15      -64.03      
H           114.48      -42.55      -65.59      
H           114.85      -40.95      -65.37      
H           115.11884   -41.98335   -64.01974   
H           111.95      -43.42      -64.79      
H           112.33      -43.1       -63.16      
H           110.92738   -42.26003   -63.95955   
H           108.84      -38.07      -70.15      
H           108.67      -39.62      -69.42      
H           108.53914   -38.29005   -68.29182   
H           110.67      -36.45      -68.93      
H           111.28      -37.13      -70.39      
H           112.27286   -37.18695   -69.00869   
H           114.36      -38.72      -59.75      
H           111.42      -39.95      -74.22      
S           112.43      -36.21      -61.29      
C           113.74      -38.14      -60.45      
C           113.41      -36.89      -60.1       
C           112.71      -43.3       -78.18      
C           113.59      -43.79      -77.13      
C           111.81      -42.33      -77.66      
N           114.54      -44.68      -77.2       
N           114.59      -43.6       -75.18      
O           115.11      -44.58      -75.99      
H           110.99      -41.02      -76.23      
H           111.07      -41.88      -78.4       
C           111.78      -41.77      -76.34      
C           113.48      -43.22      -75.8       
C           112.63      -42.13      -75.39      
C           113.35      -44.29      -94.86      
C           113.05      -43.19      -94.1       
S           113.63      -45.62      -93.73      
C           112.67      -43.12      -87.92      
C           113.11      -44.39      -88.45      
C           113.44      -45.46      -87.65      
C           113.4       -45.3       -86.27      
C           112.98      -44.04      -85.79      
C           112.6       -42.94      -86.58      
C           113.64      -46.35      -85.13      
C           113.45      -45.4       -83.93      
C           112.95      -44.19      -84.34      
C           112.2       -42.15      -89.06      
C           112.72      -42.96      -90.27      
C           113.1       -44.27      -89.94      
C           113.54      -45.72      -82.62      
C           113.13      -44.81      -81.61      
C           112.57      -43.57      -82.08      
C           112.48      -43.27      -83.41      
C           112.66      -42.56      -91.57      
C           113.02      -43.42      -92.64      
C           113.29      -44.79      -92.26      
C           113.39      -45.18      -90.93      
C           115.09      -47.03      -85.06      
C           112.49      -47.45      -85.25      
C           112.76      -40.69      -88.96      
C           110.62      -42.1       -89.14      
H           112.2       -42.04      -86.11      
H           113.89      -46.32      -88.16      
H           112.39      -41.51      -91.83      
H           113.64      -46.23      -90.65      
H           114.04      -46.67      -82.3       
H           111.98      -42.37      -83.73      
H           115.34      -47.48      -86.06      
H           115.05      -47.9       -84.41      
H           115.89277   -46.34294   -84.79241   
H           111.49      -46.98      -85.21      
H           112.55      -47.95      -84.3       
H           112.61256   -48.16373   -86.06466   
H           110.29      -41.51      -90.04      
H           110.28      -43.1       -89.41      
H           110.12219   -41.78256   -88.22375   
H           112.45      -40.23      -88.02      
H           112.3       -40.02      -89.75      
H           113.82074   -40.69      -89.21085   
H           113.74      -45.66      -79.68      
H           112.84      -42.24      -94.52      
S           112.15      -42.54      -80.79      
C           113.28      -44.82      -80.24      
C           112.7       -43.74      -79.62      
C           114.58      -45.33      -99.02      
C           114.29      -43.98      -98.64      
C           114.17      -46.23      -98.06      
N           114.41      -42.91      -99.39      
N           113.45      -42.32      -97.41      
O           113.81      -41.91      -98.67      
H           113.61      -46.65      -96.08      
H           114.28      -47.31      -98.27      
C           113.71      -45.85      -96.75      
C           113.73      -43.6       -97.37      
C           113.61      -44.57      -96.28      
C           123.5       -49.83      -112.26     
C           123.0       -48.52      -112.23     
S           122.81      -50.86      -111.01     
C           119.27      -46.79      -107.65     
C           119.77      -48.16      -107.65     
C           119.31      -49.12      -106.72     
C           118.66      -48.6       -105.6      
C           118.23      -47.24      -105.55     
C           118.56      -46.29      -106.61     
C           118.41      -49.3       -104.29     
C           117.6       -48.23      -103.53     
C           117.54      -47.02      -104.3      
C           119.83      -46.09      -108.98     
C           120.88      -47.12      -109.43     
C           120.54      -48.35      -108.83     
C           116.93      -48.35      -102.3      
C           116.27      -47.18      -101.85     
C           116.31      -45.97      -102.61     
C           116.92      -45.89      -103.81     
C           121.66      -47.08      -110.57     
C           122.17      -48.28      -111.09     
C           121.85      -49.47      -110.43     
C           120.98      -49.52      -109.34     
C           119.81      -49.57      -103.7      
C           117.53      -50.6       -104.5      
C           120.43      -44.73      -108.52     
C           118.81      -46.01      -110.13     
H           118.32      -45.2       -106.53     
H           119.59      -50.17      -106.89     
H           121.85      -46.22      -111.08     
H           120.64      -50.48      -108.93     
H           116.91      -49.24      -101.64     
H           116.75      -44.99      -104.41     
H           120.63      -49.74      -104.48     
H           120.13      -48.63      -103.24     
H           119.88087   -50.32119   -102.91337  
H           118.13      -51.34      -105.04     
H           117.27      -51.06      -103.51     
H           116.65293   -50.42604   -105.12337  
H           119.26      -45.47      -111.02     
H           118.46      -46.96      -110.39     
H           117.92208   -45.45767   -109.82237  
H           119.68      -44.18      -107.98     
H           120.62      -44.05      -109.36     
H           121.25275   -44.78877   -107.80744  
H           115.5       -47.81      -99.86      
H           123.28      -47.78      -112.92     
S           115.48      -44.71      -101.71     
C           115.61      -47.03      -100.58     
C           115.25      -45.75      -100.26     
C           125.31      -52.02      -115.56     
C           124.84      -50.69      -115.78     
C           125.23      -52.52      -114.32     
N           124.67      -50.02      -116.87     
N           123.64      -48.91      -115.26     
O           124.07      -48.86      -116.56     
H           124.71      -52.21      -112.38     
H           125.63      -53.49      -114.06     
C           124.67      -51.77      -113.3      
C           124.15      -49.99      -114.7      
C           124.14      -50.53      -113.39     
H           104.04      20.82       29.4        
H           125.44      -52.72      -116.42     
