612

C           125.06      15.1        47.69       
C           125.24      15.83       48.82       
S           124.25      13.59       48.01       
C           122.81      14.26       54.12       
C           122.68      13.26       53.12       
C           121.77      12.23       53.21       
C           120.93      12.2        54.31       
C           121.23      13.07       55.44       
C           122.19      14.07       55.35       
C           119.64      11.48       54.56       
C           119.44      11.73       56.08       
C           120.34      12.68       56.53       
C           123.75      15.39       53.73       
C           124.22      14.9        52.38       
C           123.42      13.76       51.96       
C           118.45      11.26       56.89       
C           118.41      11.69       58.23       
C           119.4       12.69       58.66       
C           120.35      13.1        57.88       
C           125.05      15.48       51.4        
C           124.83      15.16       50.06       
C           124.13      13.96       49.69       
C           123.39      13.25       50.63       
C           119.83      9.97        54.28       
C           118.5       12.16       53.88       
C           125.09      15.53       54.58       
C           123.11      16.8        53.59       
H           122.2       14.82       56.15       
H           121.58      11.65       52.33       
H           125.56      16.37       51.65       
H           122.68      12.47       50.44       
H           117.63      10.63       56.57       
H           121.09      13.86       58.07       
H           119.99      9.84        53.22       
H           118.95      9.42        54.5        
H           120.59998   9.49785     54.89017    
H           118.36      13.13       54.32       
H           117.61      11.59       54.03       
H           118.5962    12.16687    52.79428    
H           123.84      17.59       53.72       
H           122.84      16.96       52.58       
H           122.14326   16.91373    54.08048    
H           124.9       15.86       55.64       
H           125.56      16.38       54.13       
H           125.69946   14.62656    54.55849    
H           116.83      10.49       59.11       
H           125.8       16.75       48.79       
S           119.06      13.06       60.34       
C           117.5       11.31       59.21       
C           117.63      11.98       60.36       
C           126.1       16.46       43.58       
C           126.97      16.68       44.75       
C           125.0       15.81       43.88       
N           128.15      17.17       44.71       
N           127.66      16.55       46.79       
O           128.55      17.16       46.0        
H           123.78      14.77       45.32       
H           124.36      15.4        43.07       
C           124.76      15.26       45.22       
C           126.68      16.18       46.01       
C           125.5       15.42       46.34       
C           123.7       28.27       32.61       
C           122.77      27.27       32.81       
S           125.22      27.96       33.44       
C           123.9       22.32       36.1        
C           124.95      23.25       36.03       
C           126.23      22.97       36.56       
C           126.37      21.83       37.3        
C           125.29      20.99       37.49       
C           124.02      21.31       37.02       
C           127.68      21.48       38.01       
C           127.12      20.33       38.85       
C           125.76      20.02       38.51       
C           122.63      22.89       35.38       
C           123.24      24.2        34.92       
C           124.59      24.39       35.26       
C           127.74      19.56       39.89       
C           126.99      18.6        40.58       
C           125.7       18.26       40.19       
C           125.03      19.04       39.19       
C           122.62      25.02       34.05       
C           123.31      26.2        33.65       
C           124.66      26.44       34.08       
C           125.36      25.46       34.77       
C           128.27      22.59       38.87       
C           128.74      20.78       37.12       
C           121.4       23.1        36.33       
C           122.1       21.92       34.23       
H           123.25      20.74       37.33       
H           127.11      23.62       36.42       
H           121.58      24.85       33.72       
H           126.37      25.58       35.03       
H           128.78      19.78       40.2        
H           123.95      18.96       39.05       
H           128.64      23.35       38.16       
H           129.08      22.21       39.42       
H           127.59753   23.11303    39.54994    
H           128.42      19.83       36.7        
H           129.55      20.48       37.71       
H           129.08301   21.40301    36.29398    
H           121.63      21.08       34.71       
H           121.45      22.49       33.57       
H           122.83553   21.48858    33.55105    
H           120.47      23.12       35.74       
H           121.46      22.33       37.04       
H           121.45011   24.05916    36.84537    
H           128.2       18.13       42.35       
H           121.81      27.18       32.34       
S           124.96      17.04       41.19       
C           127.27      18.0        41.82       
C           126.29      17.18       42.28       
C           123.85      31.51       29.49       
C           124.43      31.68       30.8        
C           123.03      30.39       29.45       
N           125.23      32.67       31.2        
N           125.16      31.07       32.73       
O           125.76      32.2        32.36       
H           122.4       28.51       30.12       
H           122.54      30.1        28.53       
C           122.94      29.42       30.44       
C           124.42      30.6        31.75       
C           123.6       29.4        31.63       
C           124.08      40.16       15.45       
C           123.43      38.96       15.56       
S           125.33      40.29       16.7        
C           124.07      35.3        20.4        
C           125.03      36.34       20.32       
C           125.81      36.63       21.44       
C           125.66      35.88       22.62       
C           124.67      34.93       22.69       
C           123.88      34.71       21.64       
C           126.49      36.01       23.96       
C           125.74      34.97       24.81       
C           124.65      34.4        24.09       
C           123.04      35.48       19.29       
C           123.67      36.55       18.45       
C           124.8       37.15       19.14       
C           125.88      34.63       26.1        
C           125.05      33.7        26.72       
C           124.02      33.1        25.94       
C           123.77      33.51       24.65       
C           123.3       37.0        17.17       
C           123.86      38.2        16.7        
C           124.86      38.82       17.5        
C           125.44      38.25       18.67       
C           126.35      37.5        24.41       
C           127.93      35.71       23.76       
C           121.78      35.97       20.05       
C           122.77      34.28       18.46       
H           123.28      33.85       21.69       
H           126.72      37.27       21.27       
H           122.47      36.55       16.63       
H           126.29      38.81       19.12       
H           126.68      35.0        26.74       
H           122.93      33.09       24.13       
H           126.82      38.21       23.77       
H           125.28      37.77       24.6        
H           126.76769   37.67699    25.40112    
H           128.22      35.94       22.71       
H           128.56      36.17       24.48       
H           128.09605   34.63427    23.81776    
H           122.07      34.45       17.73       
H           123.68      34.03       17.91       
H           122.571     33.30633    18.90774    
H           121.18      35.11       20.49       
H           122.02      36.33       21.0        
H           121.28092   36.76852    19.50102    
H           125.81      33.51       28.84       
H           122.68      38.66       14.87       
S           122.95      32.08       26.93       
C           125.1       33.19       28.07       
C           124.03      32.39       28.34       
C           124.36      42.71       11.78       
C           124.83      43.14       13.09       
C           123.98      41.38       11.87       
N           125.32      44.28       13.5        
N           125.2       42.97       15.29       
O           125.62      44.14       14.8        
H           123.48      39.52       12.87       
H           123.77      40.75       11.04       
C           123.87      40.55       13.03       
C           124.66      42.3        14.29       
C           124.15      41.01       14.29       
C           120.77      52.2        -1.34       
C           120.34      50.93       -1.22       
S           121.64      52.8        0.11        
C           122.48      47.2        3.09        
C           122.84      48.57       3.29        
C           123.66      48.94       4.33        
C           123.95      48.02       5.31        
C           123.52      46.72       5.17        
C           122.82      46.22       4.04        
C           124.46      48.33       6.69        
C           124.59      46.92       7.27        
C           123.83      45.97       6.46        
C           121.61      47.08       1.84        
C           121.56      48.46       1.3         
C           122.27      49.39       2.19        
C           124.99      46.54       8.53        
C           124.73      45.27       9.02        
C           124.06      44.31       8.17        
C           123.55      44.66       6.91        
C           120.98      48.9        0.17        
C           121.04      50.26       -0.12       
C           121.69      51.19       0.71        
C           122.35      50.74       1.9         
C           123.5       49.24       7.52        
C           125.88      48.98       6.55        
C           120.21      46.45       2.19        
C           122.22      46.17       0.7         
H           122.54      45.18       3.92        
H           123.93      49.99       4.46        
H           120.36      48.27       -0.45       
H           122.8       51.49       2.51        
H           125.46      47.25       9.23        
H           122.88      44.02       6.33        
H           124.09      49.73       8.26        
H           123.2       50.07       6.86        
H           122.6281    48.75232    7.95595     
H           125.8       49.87       5.87        
H           126.19      49.42       7.52        
H           126.57911   48.30187    6.06063     
H           122.3       45.18       1.06        
H           121.7       46.28       -0.21       
H           123.27494   46.37094    0.51341     
H           120.29      45.5        2.73        
H           119.65      46.2        1.3         
H           119.62686   47.16273    2.77314     
H           125.24      45.15       11.17       
H           119.74      50.4        -1.96       
S           123.78      42.78       9.04        
C           124.96      44.66       10.29       
C           124.46      43.42       10.53       
C           119.71      55.02       -4.57       
C           119.33      53.62       -4.6        
C           120.54      55.3        -3.54       
N           118.72      52.96       -5.54       
N           119.15      51.51       -3.89       
O           118.55      51.68       -5.13       
H           121.49      54.9        -1.7        
H           120.99      56.26       -3.39       
C           120.81      54.41       -2.47       
C           119.63      52.68       -3.56       
C           120.45      53.13       -2.44       
C           115.28      67.39       -14.42      
C           114.86      67.22       -13.17      
S           116.06      65.99       -15.02      
C           116.42      62.6        -9.72       
C           116.45      62.33       -11.11      
C           117.0       61.04       -11.55      
C           117.51      60.11       -10.62      
C           117.44      60.43       -9.29       
C           116.92      61.65       -8.84       
C           118.03      58.7        -10.86      
C           118.41      58.32       -9.46       
C           118.19      59.39       -8.54       
C           115.76      63.97       -9.46       
C           115.25      64.33       -10.88      
C           115.9       63.47       -11.87      
C           118.66      57.05       -8.95       
C           118.94      56.97       -7.61       
C           118.95      58.06       -6.74       
C           118.57      59.28       -7.26       
C           114.8       65.51       -11.27      
C           115.06      65.93       -12.64      
C           115.74      65.06       -13.54      
C           116.02      63.78       -13.21      
C           119.24      58.67       -11.79      
C           117.07      57.64       -11.41      
C           116.83      64.9        -8.81       
C           114.53      63.87       -8.52       
H           117.02      61.87       -7.75       
H           116.93      60.84       -12.6       
H           114.29      66.2        -10.53      
H           116.49      63.04       -13.91      
H           118.45      56.12       -9.53       
H           118.35      60.11       -6.57       
H           118.9       58.86       -12.87      
H           119.56      57.62       -11.71      
H           119.98412   59.42843    -11.54673   
H           116.92      57.93       -12.48      
H           117.53      56.62       -11.49      
H           116.12508   57.58951    -10.86901   
H           114.96      63.88       -7.48       
H           113.94      64.8        -8.74       
H           113.92947   62.98317    -8.7225     
H           116.43      65.79       -8.47       
H           117.27      64.42       -7.95       
H           117.62983   65.14722    -9.50803    
H           119.14      54.8        -7.31       
H           114.24      67.94       -12.65      
S           119.38      57.69       -5.12       
C           119.21      55.8        -6.88       
C           119.44      55.96       -5.59       
C           114.73      70.66       -17.44      
C           114.19      70.81       -16.09      
C           115.47      69.55       -17.61      
N           113.58      71.84       -15.56      
N           113.67      70.22       -13.93      
O           113.2       71.46       -14.31      
H           116.2       67.68       -16.93      
H           115.99      69.51       -18.52      
C           115.56      68.49       -16.65      
C           114.31      69.73       -15.06      
C           115.01      68.5        -15.38      
C           111.5       82.03       -28.7       
C           110.57      81.47       -27.89      
S           113.0       81.08       -28.75      
C           111.74      76.38       -24.74      
C           112.85      76.87       -25.44      
C           114.1       76.27       -25.27      
C           114.29      75.41       -24.16      
C           113.17      74.95       -23.49      
C           111.91      75.35       -23.88      
C           115.62      75.05       -23.47      
C           115.07      74.21       -22.34      
C           113.65      74.22       -22.36      
C           110.51      77.31       -24.82      
C           110.95      78.29       -25.85      
C           112.3       78.01       -26.23      
C           115.79      73.64       -21.3       
C           115.07      72.9        -20.34      
C           113.62      72.99       -20.37      
C           112.95      73.62       -21.4       
C           110.33      79.37       -26.39      
C           111.02      80.3        -27.23      
C           112.35      79.98       -27.6       
C           112.97      78.84       -27.12      
C           116.28      76.37       -22.92      
C           116.65      74.17       -24.31      
C           110.1       77.95       -23.42      
C           109.33      76.49       -25.38      
H           111.06      75.1        -23.21      
H           114.93      76.7        -25.83      
H           109.29      79.54       -26.18      
H           114.0       78.63       -27.38      
H           116.89      73.68       -21.28      
H           111.85      73.62       -21.45      
H           117.26      76.16       -22.55      
H           116.28      76.97       -23.8       
H           115.74958   76.81775    -22.0796    
H           117.3       74.83       -24.95      
H           117.28      73.56       -23.69      
H           116.04473   73.56473    -24.98484   
H           108.86      76.03       -24.49      
H           108.78      77.27       -25.96      
H           109.64779   75.72441    -26.08781   
H           109.37      78.71       -23.57      
H           109.66      77.16       -22.81      
H           110.92494   78.3942     -22.86299   
H           116.68      71.95       -18.98      
H           109.59      81.87       -27.7       
S           113.07      72.23       -18.9       
C           115.62      72.22       -19.18      
C           114.66      71.73       -18.35      
C           111.06      85.48       -31.45      
C           110.03      85.23       -30.5       
C           112.15      84.62       -31.42      
N           108.84      85.77       -30.31      
N           109.12      84.09       -28.78      
O           108.33      85.09       -29.22      
H           113.06      82.87       -30.73      
H           112.81      84.62       -32.24      
C           112.29      83.59       -30.47      
C           110.19      84.13       -29.58      
C           111.34      83.22       -29.51      
C           109.76      91.13       -46.79      
C           108.86      90.32       -46.23      
S           111.02      91.67       -45.75      
C           109.0       88.87       -40.28      
C           110.18      89.53       -40.81      
C           111.28      89.8        -40.0       
C           111.27      89.31       -38.74      
C           110.13      88.65       -38.28      
C           108.97      88.51       -38.96      
C           112.37      89.4        -37.71      
C           111.7       88.61       -36.57      
C           110.42      88.25       -36.92      
C           107.9       88.92       -41.42      
C           108.76      89.4        -42.61      
C           109.96      89.86       -42.23      
C           112.27      88.17       -35.41      
C           111.52      87.36       -34.5       
C           110.18      86.98       -34.87      
C           109.66      87.38       -36.13      
C           108.36      89.49       -43.89      
C           109.11      90.17       -44.79      
C           110.27      90.76       -44.39      
C           110.75      90.58       -43.18      
C           112.67      90.87       -37.27      
C           113.66      88.65       -38.13      
C           106.67      89.8        -41.15      
C           107.61      87.45       -41.89      
H           108.06      88.13       -38.5       
H           112.18      90.25       -40.39      
H           107.32      89.2        -44.2       
H           111.75      90.88       -42.92      
H           113.28      88.48       -35.21      
H           108.71      86.94       -36.52      
H           113.24      90.96       -36.36      
H           113.31      91.34       -37.96      
H           111.78512   91.49679    -37.15939   
H           113.99      89.06       -39.13      
H           114.44      88.96       -37.45      
H           113.5722    87.58907    -38.36414   
H           106.98      87.38       -42.8       
H           108.52      86.94       -42.03      
H           107.00286   86.89228    -41.17696   
H           105.92      89.52       -40.42      
H           106.08      89.84       -42.08      
H           106.99563   90.8203     -40.94739   
H           112.89      87.01       -32.79      
H           107.94      90.01       -46.74      
S           109.44      86.07       -33.61      
C           111.89      86.92       -33.24      
C           110.86      86.34       -32.59      
C           110.32      92.5        -50.92      
C           109.53      91.36       -50.64      
C           110.93      93.04       -49.86      
N           108.84      90.5        -51.46      
N           108.7       89.82       -49.32      
O           108.37      89.55       -50.62      
H           111.09      93.27       -47.69      
H           111.48      93.96       -50.08      
C           110.79      92.6        -48.48      
C           109.43      90.9        -49.27      
C           110.01      91.5        -48.17      
C           108.52      104.02      -62.26      
C           107.46      103.29      -61.83      
S           110.03      103.19      -61.85      
C           107.95      98.32       -58.31      
C           109.14      98.75       -58.94      
C           110.37      98.12       -58.75      
C           110.39      97.14       -57.79      
C           109.16      96.76       -57.1       
C           107.91      97.35       -57.33      
C           111.55      96.36       -57.23      
C           110.93      95.68       -56.04      
C           109.55      95.84       -56.03      
C           106.78      99.14       -58.77      
C           107.5       100.17      -59.64      
C           108.88      99.96       -59.71      
C           111.58      94.9        -55.09      
C           110.84      94.3        -54.12      
C           109.47      94.45       -54.12      
C           108.77      95.1        -55.11      
C           106.95      101.2       -60.4       
C           107.74      102.06      -61.12      
C           109.17      101.92      -60.99      
C           109.77      100.85      -60.27      
C           112.66      97.33       -56.87      
C           112.02      95.3        -58.24      
C           105.86      99.82       -57.72      
C           105.99      98.26       -59.83      
H           107.07      97.1        -56.66      
H           111.27      98.55       -59.18      
H           105.89      101.33      -60.44      
H           110.84      100.66      -60.22      
H           112.65      94.92       -55.04      
H           107.71      95.18       -55.0       
H           113.47      96.63       -56.54      
H           113.02      97.87       -57.82      
H           112.31561   98.03987    -56.11796   
H           112.61      95.78       -59.04      
H           112.81      94.73       -57.78      
H           111.18947   94.79003    -58.72812   
H           105.68      98.98       -60.59      
H           106.64      97.57       -60.42      
H           105.17203   97.63449    -59.47257   
H           105.31      99.04       -57.04      
H           105.08      100.3       -58.25      
H           106.35813   100.60989   -57.15783   
H           112.41      93.44       -52.76      
H           106.47      103.64      -62.11      
S           108.81      93.59       -52.74      
C           111.32      93.56       -52.94      
C           110.35      93.04       -52.22      
C           108.69      107.62      -64.78      
C           107.48      106.88      -64.6       
C           109.78      107.17      -64.13      
N           106.31      107.21      -65.11      
N           106.11      105.3       -63.91      
O           105.47      106.18      -64.83      
H           110.66      105.55      -62.88      
H           110.75      107.64      -64.19      
C           109.73      105.87      -63.39      
C           107.34      105.77      -63.76      
C           108.55      105.22      -63.15      
C           106.24      122.19      -72.36      
C           106.61      121.99      -71.05      
S           106.3       120.65      -73.23      
C           107.9       116.63      -68.57      
C           107.88      116.57      -70.02      
C           107.74      115.34      -70.7       
C           107.89      114.23      -69.97      
C           108.07      114.29      -68.58      
C           108.1       115.47      -67.9       
C           108.11      112.75      -70.41      
C           108.2       112.06      -69.05      
C           108.28      113.01      -68.02      
C           107.83      118.08      -68.04      
C           107.64      118.79      -69.4       
C           107.6       117.92      -70.51      
C           108.26      110.67      -68.81      
C           108.37      110.26      -67.48      
C           108.55      111.16      -66.45      
C           108.54      112.6       -66.71      
C           107.38      120.11      -69.51      
C           107.01      120.62      -70.74      
C           106.92      119.76      -71.83      
C           107.26      118.41      -71.73      
C           109.43      112.6       -71.27      
C           106.84      112.27      -71.2       
C           109.15      118.53      -67.39      
C           106.68      118.49      -67.11      
H           108.21      115.47      -66.83      
H           107.47      115.33      -71.74      
H           107.59      120.81      -68.69      
H           107.27      117.79      -72.63      
H           108.08      109.98      -69.72      
H           108.65      113.23      -65.83      
H           109.34      113.19      -72.2       
H           109.53      111.6       -71.54      
H           110.27753   112.88251   -70.64551   
H           105.91      112.55      -70.7       
H           106.73      111.17      -71.12      
H           106.76269   112.58629   -72.24023   
H           107.03      119.31      -66.46      
H           105.75      118.81      -67.59      
H           106.32851   117.71529   -66.42854   
H           109.17      118.27      -66.33      
H           109.33      119.56      -67.46      
H           110.02158   118.03512   -67.81841   
H           108.28      108.1       -67.63      
H           106.7       122.75      -70.25      
S           108.7       110.44      -64.91      
C           108.36      108.92      -66.98      
C           108.65      108.8       -65.61      
C           105.94      126.04      -74.65      
C           106.25      125.95      -73.24      
C           105.6       124.8       -75.11      
N           106.71      126.89      -72.47      
N           106.57      125.09      -71.16      
O           106.77      126.42      -71.22      
H           105.25      122.64      -74.91      
H           105.35      124.77      -76.15      
C           105.58      123.56      -74.38      
C           106.17      124.75      -72.41      
C           105.9       123.47      -73.02      
C           106.22      141.64      -80.05      
C           106.21      141.2       -78.78      
S           105.73      140.32      -81.18      
C           105.43      135.39      -77.23      
C           105.56      135.63      -78.62      
C           105.45      134.55      -79.57      
C           105.52      133.24      -79.12      
C           105.47      133.02      -77.71      
C           105.35      134.05      -76.81      
C           105.67      131.93      -79.83      
C           105.73      130.93      -78.61      
C           105.61      131.62      -77.41      
C           105.38      136.69      -76.5       
C           105.8       137.68      -77.51      
C           105.72      137.06      -78.79      
C           105.85      129.54      -78.5       
C           105.95      128.89      -77.24      
C           105.83      129.68      -76.08      
C           105.68      131.09      -76.13      
C           105.93      139.03      -77.46      
C           105.95      139.76      -78.62      
C           105.87      139.17      -79.88      
C           105.79      137.78      -80.05      
C           107.05      131.98      -80.51      
C           104.5       131.63      -80.78      
C           106.32      136.62      -75.25      
C           103.89      137.12      -76.02      
H           105.39      133.83      -75.74      
H           105.64      134.79      -80.62      
H           105.84      139.57      -76.5       
H           105.7       137.28      -80.95      
H           106.07      128.95      -79.39      
H           105.69      131.7       -75.24      
H           107.09      132.68      -81.35      
H           107.76      132.19      -79.79      
H           107.36998   131.00584   -80.87976   
H           104.49      132.37      -81.58      
H           104.72      130.7       -81.19      
H           103.53323   131.67361   -80.27844   
H           103.99      137.66      -75.05      
H           103.46      137.8       -76.73      
H           103.20524   136.29683   -75.81603   
H           106.05      135.81      -74.66      
H           106.2       137.56      -74.67      
H           107.37371   136.49814   -75.50088   
H           106.27      126.66      -77.47      
H           106.4       141.89      -77.97      
S           105.62      128.79      -74.58      
C           106.15      127.52      -76.8       
C           105.97      127.26      -75.43      
C           106.53      145.79      -81.77      
C           106.33      145.52      -80.36      
C           106.72      144.66      -82.49      
N           106.18      146.42      -79.39      
N           105.85      144.4       -78.49      
O           105.8       145.72      -78.26      
H           106.6       142.47      -82.6       
H           106.94      144.74      -83.55      
C           106.57      143.34      -81.88      
C           106.1       144.21      -79.75      
C           106.2       143.06      -80.55      
H           116.8       12.19       61.08       
H           106.41      146.78      -82.09      
