612

C           99.29       27.19       6.36        
C           99.45       26.63       5.14        
S           99.02       26.05       7.58        
C           100.38      20.64       4.56        
C           100.09      21.15       5.79        
C           100.23      20.38       6.96        
C           100.81      19.15       6.85        
C           101.15      18.61       5.6         
C           100.85      19.37       4.49        
C           101.29      18.22       7.89        
C           101.76      17.05       7.07        
C           101.69      17.33       5.72        
C           100.53      21.79       3.52        
C           100.11      23.0        4.33        
C           99.89       22.59       5.68        
C           102.22      15.88       7.56        
C           102.6       14.88       6.62        
C           102.49      15.13       5.23        
C           102.04      16.37       4.77        
C           99.93       24.39       4.02        
C           99.56       25.26       5.09        
C           99.42       24.81       6.44        
C           99.5        23.46       6.75        
C           100.11      17.77       8.83        
C           102.49      18.82       8.64        
C           99.64       21.48       2.26        
C           102.04      21.92       2.98        
H           101.04      18.92       3.55        
H           99.94       20.67       7.98        
H           99.9        24.78       3.04        
H           99.47       23.17       7.75        
H           102.22      15.64       8.64        
H           102.21      16.59       3.74        
H           99.82       18.47       9.52        
H           100.45      16.95       9.42        
H           99.26514    17.35112    8.28333     
H           103.28      19.1        7.85        
H           102.97      18.02       9.17        
H           102.23012   19.64178    9.30726     
H           102.12      21.04       2.32        
H           102.16      22.93       2.44        
H           102.80973   21.86402    3.74973     
H           99.98       20.55       1.81        
H           100.01      22.19       1.52        
H           98.57234    21.52449    2.47501     
H           103.33      13.2        7.91        
H           99.59       27.26       4.29        
S           103.23      13.81       4.36        
C           103.04      13.56       6.91        
C           103.49      12.87       5.81        
C           98.84       31.49       7.3         
C           99.73       31.05       6.23        
C           98.17       30.46       7.93        
N           100.66      31.7        5.47        
N           100.7       29.59       4.85        
O           101.16      30.85       4.58        
H           97.81       28.23       8.26        
H           97.44       30.67       8.67        
C           98.4        29.04       7.69        
C           99.87       29.67       5.87        
C           99.21       28.64       6.64        
C           97.68       47.05       12.99       
C           97.58       45.98       13.75       
S           98.1        46.62       11.35       
C           97.98       40.33       11.63       
C           98.28       41.32       10.71       
C           98.58       41.0        9.35        
C           98.54       39.67       8.96        
C           98.19       38.68       9.94        
C           98.05       39.01       11.29       
C           98.92       39.08       7.61        
C           98.77       37.61       7.92        
C           98.41       37.43       9.24        
C           97.64       40.89       12.98       
C           97.84       42.41       12.73       
C           98.24       42.59       11.4        
C           98.82       36.55       7.04        
C           98.72       35.28       7.54        
C           98.45       35.08       8.91        
C           98.26       36.14       9.75        
C           97.55       43.43       13.6        
C           97.76       44.71       13.08       
C           98.13       44.9        11.72       
C           98.36       43.85       10.87       
C           100.36      39.53       7.36        
C           98.05       39.57       6.43        
C           98.75       40.34       13.98       
C           96.21       40.56       13.44       
H           97.74       38.28       12.07       
H           98.92       41.76       8.63        
H           97.27       43.32       14.61       
H           98.51       44.01       9.86        
H           99.02       36.68       5.97        
H           97.91       35.96       10.76       
H           100.53      40.57       7.27        
H           100.57      39.23       6.36        
H           101.08209   39.12339    8.06807     
H           97.15       39.1        6.75        
H           98.37       39.13       5.51        
H           97.87435    40.63854    6.30558     
H           96.03       39.48       13.66       
H           96.0        41.06       14.37       
H           95.50082    40.83051    12.65771    
H           98.38       40.27       15.03       
H           98.87       39.27       13.75       
H           99.65686    40.94457    13.96561    
H           99.25       33.94       5.8         
H           97.53       46.01       14.91       
S           98.42       33.4        9.35        
C           98.82       34.04       6.81        
C           98.69       32.89       7.64        
C           97.9        51.32       14.07       
C           98.12       50.24       15.04       
C           97.69       50.81       12.82       
N           98.59       50.31       16.26       
N           98.3        48.12       15.75       
O           98.57       49.09       16.73       
H           97.37       49.21       11.39       
H           97.48       51.48       12.0        
C           97.61       49.45       12.43       
C           98.05       48.88       14.64       
C           97.71       48.44       13.34       
C           107.29      63.71       18.79       
C           106.72      62.77       19.58       
S           106.55      63.66       17.19       
C           101.94      59.17       18.06       
C           102.62      59.83       17.04       
C           102.18      59.74       15.69       
C           101.34      58.69       15.37       
C           100.65      58.01       16.36       
C           100.88      58.31       17.72       
C           101.14      58.13       13.98       
C           100.2       56.93       14.37       
C           99.84       56.98       15.77       
C           102.71      59.39       19.4        
C           103.87      60.32       18.93       
C           103.72      60.72       17.55       
C           99.76       55.9        13.6        
C           98.93       54.9        14.15       
C           98.56       54.91       15.48       
C           98.98       55.97       16.3        
C           104.82      61.04       19.6        
C           105.62      61.99       19.05       
C           105.46      62.34       17.66       
C           104.46      61.72       16.91       
C           102.53      57.6        13.43       
C           100.4       59.06       12.99       
C           103.21      58.07       20.04       
C           101.87      60.13       20.42       
H           100.4       57.75       18.46       
H           102.56      60.52       15.04       
H           105.11      60.68       20.6        
H           104.26      62.06       15.87       
H           100.18      55.78       12.57       
H           98.83       56.0        17.35       
H           102.77      57.9        12.39       
H           103.32      58.19       13.87       
H           102.78846   56.55898    13.62385    
H           101.04      59.45       12.16       
H           99.74       58.38       12.45       
H           99.80201    59.80928    13.50874    
H           102.35      59.87       21.36       
H           101.94      61.22       20.22       
H           100.78942   60.00994    20.34231    
H           102.52      57.59       20.75       
H           103.32      57.36       19.2        
H           104.22358   58.1267     20.43692    
H           99.01       53.43       12.52       
H           107.12      62.59       20.62       
S           97.92       53.43       15.95       
C           98.59       53.68       13.52       
C           98.1        52.72       14.35       
C           110.39      66.76       19.56       
C           110.02      65.82       20.57       
C           109.62      66.63       18.43       
N           110.58      65.5        21.72       
N           108.97      64.02       21.32       
O           109.95      64.36       22.17       
H           107.91      65.71       17.33       
H           109.65      67.41       17.63       
C           108.55      65.66       18.21       
C           109.09      64.76       20.26       
C           108.31      64.68       19.07       
C           121.54      78.66       21.52       
C           120.89      78.05       22.58       
S           120.86      78.11       19.98       
C           116.25      74.28       21.88       
C           116.7       74.95       20.7        
C           116.18      74.61       19.45       
C           115.37      73.47       19.36       
C           115.03      72.78       20.56       
C           115.34      73.19       21.85       
C           114.83      72.71       18.15       
C           114.19      71.47       18.8        
C           114.26      71.63       20.23       
C           116.95      74.89       23.14       
C           117.91      75.88       22.46       
C           117.69      75.93       21.09       
C           113.44      70.53       18.24       
C           112.75      69.67       19.07       
C           112.76      69.8        20.45       
C           113.62      70.67       21.06       
C           118.95      76.52       22.98       
C           119.78      77.29       22.2        
C           119.51      77.3        20.85       
C           118.47      76.74       20.27       
C           116.11      72.34       17.42       
C           113.93      73.72       17.39       
C           117.63      73.71       23.96       
C           115.93      75.58       24.1        
H           115.15      72.59       22.75       
H           116.39      75.2        18.54       
H           119.15      76.41       24.04       
H           118.34      76.72       19.22       
H           113.34      70.41       17.16       
H           113.69      70.72       22.1        
H           116.7       73.21       17.15       
H           116.65      71.68       18.0        
H           115.88037   71.85203    16.47276    
H           114.58      74.58       17.13       
H           113.54      73.32       16.42       
H           113.07172   74.00609    17.99795    
H           115.63      74.88       24.87       
H           116.34      76.43       24.6        
H           115.02868   75.86579    23.55774    
H           116.76      73.11       24.2        
H           118.25      73.94       24.83       
H           118.34484   73.14233    23.3643     
H           111.68      68.36       17.66       
H           121.17      78.05       23.56       
S           111.86      68.59       21.27       
C           111.84      68.59       18.7        
C           111.35      67.85       19.76       
C           125.02      81.41       21.06       
C           124.18      81.46       22.21       
C           124.59      80.47       20.17       
N           124.14      82.34       23.2        
N           122.45      80.9        23.59       
O           123.06      82.05       24.0        
H           123.23      79.01       19.41       
H           125.12      80.4        19.25       
C           123.45      79.6        20.32       
C           123.07      80.5        22.49       
C           122.66      79.59       21.47       
C           125.74      91.2        8.86        
C           126.39      90.06       8.94        
S           125.55      91.95       10.5        
C           127.46      87.3        14.18       
C           126.84      88.51       14.41       
C           126.51      88.87       15.75       
C           126.75      88.02       16.74       
C           127.39      86.79       16.48       
C           127.76      86.37       15.24       
C           126.11      87.96       18.12       
C           126.57      86.58       18.63       
C           127.27      85.83       17.63       
C           127.47      86.93       12.7        
C           127.13      88.21       12.12       
C           126.68      89.16       13.11       
C           126.28      85.91       19.86       
C           126.4       84.58       19.97       
C           127.09      83.87       18.93       
C           127.56      84.46       17.74       
C           127.12      88.45       10.77       
C           126.59      89.69       10.32       
C           126.21      90.59       11.27       
C           126.17      90.42       12.68       
C           124.57      87.95       17.91       
C           126.66      89.1        19.02       
C           126.43      85.83       12.5        
C           128.87      86.44       12.2        
H           128.01      85.37       14.99       
H           126.02      89.79       15.94       
H           127.38      87.69       10.09       
H           125.77      91.2        13.36       
H           125.91      86.45       20.69       
H           127.92      83.87       16.93       
H           124.15      88.95       17.51       
H           124.1       87.94       18.85       
H           124.23811   87.07437    17.35214    
H           126.15      90.07       19.01       
H           126.35      88.82       20.05       
H           127.74051   89.23686    19.06322    
H           128.83      85.45       12.02       
H           129.18      87.07       11.34       
H           129.68888   86.65697    12.8859     
H           126.91      84.93       12.09       
H           125.93      85.53       13.42       
H           125.58162   86.14988    11.895      
H           125.24      84.13       21.81       
H           126.61      89.45       8.1         
S           126.85      82.16       19.17       
C           125.93      83.74       20.99       
C           125.9       82.47       20.63       
C           123.38      92.43       5.25        
C           124.61      91.79       5.11        
C           123.19      92.88       6.57        
N           125.17      91.17       4.1         
N           126.49      90.72       5.88        
O           126.3       90.55       4.57        
H           123.55      92.92       8.57        
H           122.3       93.46       6.84        
C           124.0       92.62       7.69        
C           125.38      91.39       6.32        
C           125.11      91.77       7.67        
C           113.38      95.45       -7.72       
C           114.61      94.9        -7.96       
S           113.07      95.48       -6.02       
C           118.52      93.68       -3.26       
C           117.21      94.17       -3.0        
C           116.79      94.36       -1.69       
C           117.68      93.9        -0.68       
C           118.96      93.47       -0.98       
C           119.45      93.43       -2.3        
C           117.39      93.68       0.81        
C           118.71      93.37       1.32        
C           119.7       93.27       0.29        
C           118.6       93.37       -4.78       
C           117.2       93.86       -5.26       
C           116.48      94.42       -4.22       
C           119.04      93.33       2.68        
C           120.38      93.12       2.95        
C           121.37      92.93       1.95        
C           121.05      92.94       0.56        
C           116.7       93.97       -6.55       
C           115.4       94.55       -6.77       
C           114.66      94.82       -5.6        
C           115.18      94.86       -4.36       
C           116.55      92.4        1.12        
C           116.73      94.87       1.43        
C           118.76      91.84       -4.9        
C           119.65      94.24       -5.63       
H           120.48      93.13       -2.53       
H           115.79      94.72       -1.43       
H           117.29      93.59       -7.38       
H           114.52      95.13       -3.51       
H           118.3       93.51       3.44        
H           121.86      92.93       -0.15       
H           115.87      92.46       1.98        
H           115.81      92.14       0.44        
H           117.13515   91.48048    1.10607     
H           115.82      95.03       0.87        
H           116.42      94.6        2.48        
H           117.42019   95.71116    1.3653      
H           119.42      94.03       -6.63       
H           119.51      95.35       -5.64       
H           120.70528   93.98331    -5.53731    
H           119.62      91.45       -4.4        
H           117.91      91.44       -4.34       
H           118.76706   91.43033    -5.91006    
H           120.63      93.11       5.23        
H           115.05      94.68       -8.95       
S           122.96      92.68       2.56        
C           121.05      92.99       4.27        
C           122.43      92.72       4.19        
C           110.42      97.91       -10.06      
C           111.67      97.44       -10.65      
C           110.23      97.48       -8.82       
N           112.22      97.86       -11.75      
N           113.73      96.53       -10.6       
O           113.47      97.23       -11.81      
H           110.75      96.33       -7.11       
H           109.34      97.75       -8.25       
C           111.16      96.62       -8.07       
C           112.63      96.69       -9.82       
C           112.41      96.23       -8.52       
C           102.05      111.33      -12.75      
C           101.49      110.4       -11.96      
S           103.13      110.65      -13.95      
C           103.57      104.62      -12.15      
C           104.04      105.45      -13.22      
C           105.23      105.15      -13.89      
C           105.89      103.96      -13.57      
C           105.4       103.2       -12.47      
C           104.2       103.45      -11.85      
C           107.32      103.63      -13.91      
C           107.57      102.5       -12.93      
C           106.45      102.24      -12.18      
C           102.44      105.35      -11.35      
C           102.42      106.7       -12.12      
C           103.24      106.69      -13.21      
C           108.72      101.74      -12.79      
C           108.77      100.65      -11.9       
C           107.64      100.48      -11.09      
C           106.47      101.26      -11.18      
C           101.71      107.8       -11.73      
C           102.01      109.05      -12.35      
C           102.85      108.99      -13.53      
C           103.41      107.85      -13.99      
C           108.35      104.79      -13.65      
C           107.49      103.19      -15.4       
C           102.81      105.58      -9.91       
C           101.06      104.66      -11.64      
H           103.99      102.82      -11.09      
H           105.57      105.71      -14.73      
H           101.03      107.83      -10.82      
H           104.24      107.87      -14.69      
H           109.7       102.07      -13.3       
H           105.71      101.12      -10.49      
H           109.4       104.43      -13.68      
H           108.28      105.55      -14.44      
H           108.22515   105.29632   -12.69284   
H           107.17      104.08      -16.02      
H           108.53      103.07      -15.48      
H           106.95318   102.27596   -15.6539    
H           100.24      105.12      -11.07      
H           100.75      104.87      -12.7       
H           100.98951   103.58146   -11.49901   
H           102.4       104.81      -9.35       
H           102.35      106.52      -9.57       
H           103.87465   105.74888   -9.74847    
H           110.79      99.95       -12.18      
H           100.86      110.58      -11.11      
S           107.93      99.07       -10.04      
C           109.86      99.83       -11.63      
C           109.57      98.97       -10.66      
C           101.56      115.77      -12.57      
C           100.69      114.94      -11.84      
C           102.52      115.08      -13.19      
N           99.61       115.28      -11.17      
N           99.92       113.0       -11.03      
O           99.16       114.11      -10.64      
H           103.45      113.3       -14.08      
H           103.17      115.64      -13.86      
C           102.67      113.65      -13.37      
C           100.86      113.45      -11.81      
C           101.81      112.8       -12.7       
C           100.61      131.87      -16.6       
C           99.58       131.06      -16.33      
S           102.09      131.22      -15.89      
C           99.97       125.3       -14.4       
C           101.16      126.05      -14.33      
C           102.33      125.39      -13.96      
C           102.32      124.02      -13.63      
C           101.12      123.31      -13.62      
C           99.93       123.93      -14.06      
C           103.45      123.08      -13.3       
C           102.71      121.74      -13.12      
C           101.32      121.97      -13.25      
C           98.88       126.18      -14.92      
C           99.55       127.54      -15.13      
C           100.97      127.41      -14.87      
C           103.15      120.47      -12.89      
C           102.28      119.42      -12.79      
C           100.88      119.65      -12.92      
C           100.39      120.91      -13.21      
C           99.01       128.71      -15.59      
C           99.9        129.77      -15.82      
C           101.29      129.68      -15.53      
C           101.91      128.46      -15.06      
C           104.08      123.38      -12.02      
C           104.46      122.94      -14.48      
C           97.84       126.26      -13.75      
C           98.21       125.6       -16.14      
H           99.04       123.37      -14.14      
H           103.24      125.97      -13.91      
H           97.94       128.76      -15.77      
H           102.95      128.37      -14.9       
H           104.16      120.35      -12.53      
H           99.33       121.08      -13.47      
H           105.05      122.98      -12.16      
H           104.26      124.44      -11.88      
H           103.60025   123.00455   -11.11613   
H           105.25      123.7       -14.41      
H           104.95      121.95      -14.32      
H           103.98112   123.05609   -15.45227   
H           97.57       124.8       -15.84      
H           97.6        126.36      -16.6       
H           98.90109    125.27227   -16.91659   
H           97.52       125.25      -13.64      
H           96.97       126.85      -14.1       
H           98.30061    126.55508   -12.8072    
H           103.63      117.75      -12.55      
H           98.51       131.33      -16.44      
S           100.0       118.16      -12.73      
C           102.57      118.07      -12.56      
C           101.49      117.24      -12.6       
C           100.77      135.81      -18.79      
C           99.58       134.96      -18.72      
C           101.8       135.34      -18.06      
N           98.49       135.01      -19.47      
N           98.35       133.16      -18.28      
O           97.67       133.97      -19.15      
H           102.65      133.78      -16.96      
H           102.77      135.79      -18.05      
C           101.75      134.03      -17.43      
C           99.54       133.73      -17.98      
C           100.62      133.19      -17.28      
C           103.01      143.98      -32.95      
C           104.06      143.49      -32.19      
S           101.45      143.8       -32.08      
C           103.35      140.98      -26.66      
C           102.19      141.48      -27.33      
C           100.92      141.52      -26.67      
C           100.85      141.09      -25.38      
C           102.02      140.54      -24.74      
C           103.22      140.44      -25.39      
C           99.59       140.81      -24.66      
C           100.14      139.97      -23.49      
C           101.61      139.96      -23.5       
C           104.63      141.31      -27.49      
C           103.98      141.87      -28.79      
C           102.56      141.91      -28.67      
C           99.53       139.19      -22.45      
C           100.32      138.53      -21.42      
C           101.73      138.57      -21.54      
C           102.39      139.29      -22.55      
C           104.59      142.41      -29.91      
C           103.69      143.0       -30.86      
C           102.31      142.94      -30.75      
C           101.71      142.31      -29.66      
C           98.58       139.97      -25.46      
C           98.93       142.03      -23.95      
C           105.49      140.03      -27.75      
C           105.53      142.46      -26.89      
H           104.09      140.03      -24.95      
H           100.07      142.04      -27.02      
H           105.66      142.5       -30.04      
H           100.63      142.38      -29.47      
H           98.46       139.06      -22.33      
H           103.48      139.34      -22.54      
H           98.11       140.6       -26.28      
H           97.81       139.68      -24.74      
H           99.0082     139.04716   -25.85129   
H           99.5        142.39      -23.1       
H           97.99       141.72      -23.53      
H           98.70294    142.8673    -24.6099    
H           106.51      142.37      -27.44      
H           105.3       143.46      -27.16      
H           105.76278   142.34008   -25.83192   
H           105.94      139.66      -26.84      
H           106.32      140.18      -28.42      
H           104.91905   139.22645   -28.21521   
H           98.82       137.46      -20.17      
H           105.09      143.46      -32.57      
S           102.43      137.42      -20.36      
C           99.86       137.64      -20.37      
C           100.85      137.03      -19.65      
C           102.98      145.28      -37.21      
C           104.04      144.54      -36.6       
C           101.86      145.55      -36.35      
N           105.26      144.32      -37.05      
N           105.25      143.51      -34.99      
O           105.97      143.63      -36.1       
H           101.09      145.32      -34.36      
H           101.04      146.09      -36.74      
C           101.97      145.13      -34.95      
C           104.1       144.15      -35.27      
C           102.97      144.36      -34.35      
C           100.61      151.77      -52.18      
C           99.82       151.94      -51.1       
S           102.11      150.95      -51.78      
C           101.12      150.35      -45.41      
C           102.08      150.0       -46.39      
C           103.17      149.22      -46.08      
C           103.25      148.66      -44.82      
C           102.36      148.96      -43.79      
C           101.29      149.8       -44.1       
C           104.4       147.74      -44.27      
C           103.85      147.36      -42.91      
C           102.65      148.17      -42.62      
C           99.9        150.94      -46.09      
C           100.37      151.15      -47.51      
C           101.58      150.41      -47.71      
C           104.3       146.42      -42.0       
C           103.59      146.43      -40.77      
C           102.43      147.22      -40.52      
C           101.9       148.05      -41.5       
C           99.72       151.65      -48.61      
C           100.34      151.55      -49.86      
C           101.65      151.01      -50.08      
C           102.27      150.48      -48.94      
C           105.72      148.52      -44.31      
C           104.56      146.53      -45.12      
C           99.46       152.3       -45.56      
C           98.69       149.91      -46.02      
H           100.52      150.06      -43.3       
H           103.92      149.01      -46.88      
H           98.82       152.25      -48.49      
H           103.29      150.09      -48.99      
H           105.21      145.8       -42.15      
H           101.0       148.52      -41.28      
H           106.48      147.8       -44.54      
H           105.69      149.25      -45.16      
H           105.90142   149.14801   -43.43777   
H           104.9       146.88      -46.12      
H           105.37      145.88      -44.76      
H           103.66232   145.91695   -45.20028   
H           98.31       149.76      -44.97      
H           97.93       150.4       -46.62      
H           98.98317    148.95183   -46.44903   
H           98.99       151.99      -44.61      
H           98.59       152.74      -46.13      
H           100.30043   152.98959   -45.48098   
H           104.86      145.09      -39.38      
H           98.83       152.5       -51.1       
S           101.94      147.17      -38.89      
C           103.94      145.68      -39.57      
C           103.0       145.8       -38.54      
C           99.59       152.68      -56.45      
C           100.89      152.25      -56.01      
C           98.77       152.81      -55.38      
N           101.83      151.89      -56.85      
N           102.55      151.68      -54.73      
O           102.85      151.56      -56.02      
H           98.4        152.87      -53.34      
H           97.7        153.15      -55.6       
C           99.15       152.58      -54.05      
C           101.27      152.01      -54.66      
C           100.36      152.13      -53.59      
H           103.95      11.86       5.9         
H           99.42       153.22      -57.38      
