612

C           53.9        47.04       37.06       
C           52.92       47.88       36.97       
S           53.35       45.39       37.22       
C           47.07       46.29       36.9        
C           47.96       45.17       37.07       
C           47.49       43.85       37.12       
C           46.15       43.63       36.98       
C           45.21       44.75       37.05       
C           45.72       46.03       36.93       
C           45.36       42.34       37.27       
C           43.9        42.82       37.37       
C           43.89       44.21       37.11       
C           47.86       47.54       36.86       
C           49.23       47.01       36.85       
C           49.31       45.64       37.15       
C           42.85       41.99       37.56       
C           41.61       42.66       37.45       
C           41.48       44.02       37.15       
C           42.62       44.84       37.0        
C           50.32       47.8        36.71       
C           51.6        47.26       36.93       
C           51.71       45.89       37.19       
C           50.54       45.07       37.34       
C           45.86       41.62       38.58       
C           45.43       41.2        36.24       
C           47.8        48.46       38.13       
C           47.63       48.28       35.53       
H           45.05       46.87       36.82       
H           48.16       42.93       37.24       
H           50.27       48.91       36.56       
H           50.62       43.96       37.47       
H           42.92       40.99       37.91       
H           42.52       45.86       36.78       
H           46.9        41.4        38.5        
H           45.46       40.67       38.65       
H           45.76942    42.2401     39.47183    
H           44.71       41.48       35.52       
H           45.23       40.24       36.63       
H           46.38855    41.2        35.72108    
H           48.45       49.0        35.29       
H           47.61       47.63       34.69       
H           46.66932    48.7874     35.44205    
H           46.8        48.82       38.18       
H           48.6        49.23       38.16       
H           47.98721    47.89838    39.04523    
H           40.42       41.04       38.17       
H           53.12       48.95       36.78       
S           39.8        44.48       37.1        
C           40.39       42.05       37.79       
C           39.29       42.83       37.56       
C           58.27       47.93       37.28       
C           57.29       48.99       37.15       
C           57.71       46.66       37.22       
N           57.44       50.28       37.21       
N           55.26       49.85       37.02       
O           56.19       50.85       36.99       
H           56.06       45.32       37.12       
H           58.34       45.75       37.16       
C           56.33       46.42       37.07       
C           55.85       48.72       37.07       
C           55.31       47.38       37.02       
C           74.75       47.49       36.25       
C           73.92       46.37       36.32       
S           73.72       48.88       35.96       
C           67.92       46.59       37.01       
C           68.57       47.81       36.87       
C           67.89       49.05       36.85       
C           66.55       49.06       36.89       
C           65.9        47.84       37.05       
C           66.5        46.61       37.09       
C           65.56       50.21       36.99       
C           64.27       49.41       37.09       
C           64.5        48.05       37.13       
C           68.89       45.44       36.82       
C           70.22       46.26       36.79       
C           69.99       47.6        36.72       
C           62.94       49.89       37.17       
C           61.93       49.06       37.15       
C           62.2        47.67       37.34       
C           63.47       47.15       37.36       
C           71.46       45.74       36.64       
C           72.49       46.67       36.41       
C           72.22       48.05       36.31       
C           70.96       48.56       36.5        
C           65.49       51.07       35.69       
C           65.83       50.97       38.31       
C           68.79       44.63       35.52       
C           68.83       44.39       37.94       
H           65.91       45.7        37.03       
H           68.46       49.93       36.56       
H           71.65       44.7        36.84       
H           70.8        49.68       36.47       
H           62.81       50.97       37.02       
H           63.66       46.14       37.59       
H           66.41       51.6        35.64       
H           64.72       51.8        35.71       
H           65.3109     50.53271    34.75869    
H           65.93       50.29       39.15       
H           64.97       51.57       38.54       
H           66.68095    51.64933    38.25994    
H           67.94       43.76       37.81       
H           69.6        43.66       37.94       
H           68.74157    44.90019    38.89916    
H           69.38       43.71       35.59       
H           67.75       44.29       35.5        
H           69.02836    45.14177    34.5876     
H           60.11       50.27       36.65       
H           74.33       45.36       36.46       
S           60.69       46.83       37.72       
C           60.48       49.3        37.02       
C           59.7        48.18       37.3        
C           78.98       47.86       35.08       
C           78.17       46.75       34.79       
C           78.36       48.71       35.99       
N           78.46       45.68       34.03       
N           76.45       45.34       35.03       
O           77.45       44.81       34.23       
H           76.55       49.43       36.91       
H           78.76       49.7        36.2        
C           76.97       48.54       36.45       
C           76.83       46.54       35.32       
C           76.18       47.51       36.07       
C           90.46       55.32       26.5        
C           90.49       55.3        27.85       
S           89.61       53.89       25.94       
C           87.25       51.43       31.23       
C           87.39       51.05       29.88       
C           86.53       50.15       29.32       
C           85.48       49.67       30.05       
C           85.39       50.01       31.47       
C           86.26       50.99       32.06       
C           84.25       48.87       29.67       
C           83.47       48.82       30.97       
C           84.12       49.58       31.98       
C           88.24       52.62       31.61       
C           89.02       52.79       30.26       
C           88.37       51.95       29.28       
C           82.26       48.23       31.24       
C           81.62       48.49       32.47       
C           82.29       49.28       33.49       
C           83.52       49.8        33.18       
C           89.74       53.86       29.85       
C           89.9        54.13       28.45       
C           89.29       53.23       27.55       
C           88.59       52.11       27.94       
C           84.63       47.47       29.15       
C           83.43       49.49       28.57       
C           89.18       52.15       32.83       
C           87.52       54.04       31.94       
H           85.97       51.42       33.01       
H           86.67       49.85       28.28       
H           90.29       54.51       30.55       
H           88.13       51.48       27.19       
H           81.86       47.54       30.57       
H           84.02       50.33       33.93       
H           83.76       47.04       28.65       
H           85.47       47.55       28.46       
H           84.98684    46.81579    29.94547    
H           83.92       49.34       27.57       
H           82.44       49.01       28.52       
H           83.2357     50.54479    28.7643     
H           88.34       54.73       32.21       
H           87.1        54.44       30.99       
H           86.77915    54.04       32.73953    
H           89.48       53.1        33.34       
H           88.53       51.66       33.53       
H           90.00489    51.46492    32.63426    
H           79.72       47.35       32.47       
H           90.93       56.04       28.55       
S           81.44       49.17       35.03       
C           80.43       47.86       33.05       
C           80.18       48.26       34.33       
C           91.04       58.14       23.12       
C           91.4        58.51       24.45       
C           90.61       56.82       23.03       
N           91.98       59.66       24.93       
N           91.67       58.19       26.71       
O           92.03       59.45       26.3        
H           90.17       54.87       23.81       
H           90.43       56.37       22.05       
C           90.43       55.92       24.17       
C           91.22       57.63       25.59       
C           90.71       56.28       25.47       
C           95.97       64.45       9.01        
C           95.2        63.35       9.05        
S           95.51       65.61       10.25       
C           92.38       61.44       14.03       
C           92.67       62.83       14.0        
C           92.54       63.61       15.13       
C           92.24       62.99       16.34       
C           91.99       61.56       16.34       
C           92.05       60.73       15.19       
C           92.15       63.61       17.74       
C           91.83       62.32       18.5        
C           91.73       61.21       17.67       
C           92.86       60.79       12.78       
C           93.3        61.99       11.97       
C           93.32       63.2        12.72       
C           91.73       62.09       19.81       
C           91.41       60.8        20.41       
C           91.23       59.72       19.47       
C           91.4        59.97       18.07       
C           93.85       61.97       10.67       
C           94.48       63.16       10.23       
C           94.52       64.35       11.04       
C           93.95       64.35       12.33       
C           90.99       64.67       17.65       
C           93.49       64.26       18.18       
C           91.68       60.05       12.21       
C           93.99       59.82       13.1        
H           91.81       59.69       15.22       
H           92.78       64.66       15.23       
H           93.87       61.05       10.1        
H           94.11       65.28       12.97       
H           91.92       62.97       20.47       
H           91.34       59.16       17.29       
H           91.08       65.41       16.83       
H           90.08       64.19       17.39       
H           90.79795    65.18926    18.58893    
H           93.5        65.31       17.8        
H           93.6        64.49       19.24       
H           94.35957    63.71652    17.81043    
H           93.49       59.07       13.67       
H           94.37       59.37       12.2        
H           94.78159    60.2582     13.70783    
H           91.48       59.03       12.64       
H           91.91       59.82       11.19       
H           90.80366    60.69682    12.16827    
H           91.66       60.88       22.63       
H           95.3        62.57       8.28        
S           90.95       58.17       20.32       
C           91.44       60.27       21.76       
C           91.14       58.95       21.89       
C           99.52       65.3        6.52        
C           98.63       64.28       6.15        
C           99.13       66.1        7.51        
N           98.65       63.43       5.19        
N           96.67       63.25       6.18        
O           97.44       62.81       5.15        
H           97.76       66.48       9.17        
H           99.77       66.9        7.82        
C           98.04       65.75       8.43        
C           97.45       64.12       6.87        
C           97.14       64.76       8.15        
C           114.49      70.28       1.33        
C           114.09      70.24       2.64        
S           113.46      69.21       0.4         
C           108.85      67.72       4.48        
C           109.2       67.29       3.16        
C           108.28      66.53       2.4         
C           107.04      66.26       2.86        
C           106.72      66.68       4.13        
C           107.55      67.48       4.91        
C           105.94      65.51       2.16        
C           104.84      65.71       3.27        
C           105.42      66.19       4.47        
C           110.0       68.44       5.22        
C           110.96      68.58       4.06        
C           110.51      67.95       2.91        
C           103.46      65.31       3.29        
C           102.67      65.54       4.48        
C           103.29      66.05       5.66        
C           104.63      66.37       5.67        
C           112.04      69.37       4.0         
C           112.88      69.49       2.87        
C           112.43      68.77       1.74        
C           111.25      68.02       1.75        
C           106.26      64.05       2.02        
C           105.51      66.19       0.87        
C           110.71      67.75       6.39        
C           109.64      69.93       5.59        
H           107.14      67.84       5.82        
H           108.51      66.5        1.36        
H           112.27      69.92       4.83        
H           110.95      67.58       0.89        
H           102.97      64.89       2.44        
H           104.97      66.8        6.52        
H           107.01      63.94       1.31        
H           105.36      63.5        1.78        
H           106.66935   63.68922    2.96359     
H           106.38      66.33       0.18        
H           104.86      65.42       0.43        
H           105.01442   67.14626    1.03752     
H           110.45      70.53       6.0         
H           109.25      70.44       4.75        
H           108.8456    70.04349    6.32766     
H           111.55      68.36       6.76        
H           109.95      67.73       7.2         
H           110.99889   66.71723    6.195       
H           100.69      64.45       4.02        
H           114.58      70.76       3.46        
S           102.11      66.2        6.91        
C           101.34      64.98       4.72        
C           100.84      65.5        5.89        
C           117.82      72.83       -0.04       
C           117.1       71.94       -0.95       
C           117.45      72.67       1.22        
N           117.12      71.94       -2.3        
N           115.55      70.52       -1.58       
O           116.29      70.91       -2.65       
H           116.24      71.7        2.76        
H           117.93      73.2        2.01        
C           116.41      71.8        1.69        
C           116.03      71.13       -0.54       
C           115.6       71.06       0.82        
C           119.83      87.96       -4.62       
C           119.98      87.49       -3.32       
S           120.08      86.67       -5.71       
C           120.93      81.76       -1.61       
C           120.78      81.97       -3.0        
C           120.82      80.92       -3.9        
C           120.79      79.62       -3.44       
C           120.89      79.41       -2.01       
C           121.07      80.47       -1.14       
C           120.65      78.34       -4.22       
C           120.65      77.31       -3.0        
C           120.72      77.99       -1.79       
C           120.93      83.05       -0.87       
C           120.71      84.07       -1.99       
C           120.7       83.42       -3.29       
C           120.21      76.04       -3.02       
C           119.78      75.41       -1.86       
C           119.95      76.06       -0.65       
C           120.46      77.36       -0.59       
C           120.57      85.39       -1.99       
C           120.36      86.1        -3.15       
C           120.32      85.51       -4.44       
C           120.56      84.12       -4.55       
C           121.8       78.01       -5.22       
C           119.28      78.25       -4.85       
C           122.18      83.33       -0.02       
C           119.65      83.32       -0.06       
H           121.2       80.31       -0.02       
H           120.81      81.05       -4.96       
H           120.61      85.92       -1.04       
H           120.59      83.72       -5.58       
H           120.05      75.48       -3.94       
H           120.62      77.85       0.35        
H           121.47      77.5        -6.05       
H           122.02      78.99       -5.55       
H           122.5501    77.46511    -4.64681    
H           119.4       78.93       -5.67       
H           119.06      77.24       -5.14       
H           118.49522   78.64239    -4.20328    
H           119.54      84.41       0.21        
H           118.78      83.03       -0.65       
H           119.58761   82.70998    0.84116     
H           121.89      84.22       0.63        
H           122.39      82.46       0.63        
H           123.05099   83.5569     -0.63482    
H           118.85      73.56       -2.59       
H           119.87      88.13       -2.44       
S           119.27      75.1        0.63        
C           119.17      74.14       -1.71       
C           118.81      73.8        -0.46       
C           118.81      92.14       -6.01       
C           118.57      91.72       -4.67       
C           119.53      91.19       -6.64       
N           117.91      92.45       -3.76       
N           118.38      90.38       -2.86       
O           117.88      91.65       -2.62       
H           120.43      89.26       -6.85       
H           119.89      91.46       -7.59       
C           119.84      89.87       -6.2        
C           118.82      90.39       -4.14       
C           119.45      89.37       -4.97       
C           118.56      107.02      -13.41      
C           118.84      105.86      -14.09      
S           117.91      106.72      -11.86      
C           118.16      100.38      -11.42      
C           117.93      101.55      -10.59      
C           117.53      101.36      -9.28       
C           117.55      100.08      -8.69       
C           117.78      98.96       -9.52       
C           118.09      99.09       -10.88      
C           117.18      99.66       -7.22       
C           117.48      98.15       -7.35       
C           117.83      97.76       -8.68       
C           118.44      100.85      -12.82      
C           118.37      102.34      -12.72      
C           118.09      102.75      -11.38      
C           117.63      97.13       -6.41       
C           117.92      95.78       -6.72       
C           118.14      95.44       -8.08       
C           118.06      96.45       -9.05       
C           118.56      103.3       -13.72      
C           118.53      104.7       -13.39      
C           118.13      104.95      -12.04      
C           117.91      104.04      -11.04      
C           115.71      99.99       -6.94       
C           118.21      100.39      -6.23       
C           117.36      100.32      -13.9       
C           119.82      100.35      -13.13      
H           118.22      98.21       -11.43      
H           117.15      102.12      -8.63       
H           119.01      103.07      -14.63      
H           117.6       104.41      -10.09      
H           117.61      97.38       -5.36       
H           118.35      96.12       -10.03      
H           115.57      100.76      -6.17       
H           115.3       100.35      -7.86       
H           115.12577   99.13169    -6.60822    
H           117.81      101.32      -5.89       
H           118.13      99.73       -5.37       
H           119.2177    100.57582   -6.60163    
H           119.77      99.25       -13.19      
H           120.1       100.65      -14.09      
H           120.60846   100.80157   -12.52791   
H           117.17      99.23       -13.98      
H           117.72      100.65      -14.84      
H           116.3604    100.71421   -13.71697   
H           118.35      94.89       -4.87       
H           119.24      105.82      -15.11      
S           118.54      93.71       -8.28       
C           118.29      94.7        -5.93       
C           118.57      93.51       -6.57       
C           118.68      111.3       -14.45      
C           119.15      110.28      -15.36      
C           118.0       110.75      -13.42      
N           119.71      110.37      -16.57      
N           119.49      108.25      -16.11      
O           119.89      109.13      -17.04      
H           117.34      109.11      -12.2       
H           117.37      111.42      -12.81      
C           118.02      109.36      -13.04      
C           119.06      108.86      -15.05      
C           118.54      108.38      -13.8       
C           119.6       127.68      -14.93      
C           119.44      126.87      -13.85      
S           119.46      126.67      -16.32      
C           119.33      120.86      -13.82      
C           119.28      121.43      -15.13      
C           119.44      120.69      -16.3       
C           119.53      119.3       -16.21      
C           119.6       118.74      -14.91      
C           119.55      119.46      -13.73      
C           119.63      118.2       -17.28      
C           119.7       117.01      -16.39      
C           119.59      117.33      -15.01      
C           119.21      121.88      -12.72      
C           119.13      123.15      -13.53      
C           119.17      122.84      -14.92      
C           119.58      115.7       -16.73      
C           119.25      114.77      -15.73      
C           119.14      115.13      -14.43      
C           119.26      116.42      -14.06      
C           119.06      124.41      -13.14      
C           119.23      125.49      -14.06      
C           119.29      125.19      -15.37      
C           119.21      123.87      -15.88      
C           120.94      118.24      -18.07      
C           118.42      118.27      -18.22      
C           120.44      121.9       -11.82      
C           117.94      121.59      -11.85      
H           119.42      118.95      -12.76      
H           119.38      121.17      -17.32      
H           119.1       124.75      -12.08      
H           119.22      123.67      -16.96      
H           119.49      115.47      -17.77      
H           119.17      116.75      -13.0       
H           120.77      117.73      -19.05      
H           121.18      119.28      -18.4       
H           121.83161   117.88897   -17.55048   
H           118.32      119.23      -18.71      
H           118.63      117.54      -18.96      
H           117.4396    118.12791   -17.76532   
H           117.96      120.56      -11.49      
H           118.09      122.3       -11.04      
H           117.00054   121.95856   -12.26192   
H           120.33      121.12      -11.11      
H           120.41      122.88      -11.28      
H           121.38476   121.83607   -12.35986   
H           119.1       112.83      -16.76      
H           119.4       127.24      -12.79      
S           118.8       113.76      -13.41      
C           119.0       113.37      -15.86      
C           118.69      112.69      -14.7       
C           120.16      131.98      -15.48      
C           119.51      131.41      -14.33      
C           120.83      131.01      -16.22      
N           118.69      131.98      -13.45      
N           118.66      129.77      -13.12      
O           118.24      131.0       -12.65      
H           121.22      128.92      -16.66      
H           121.48      131.2       -17.04      
C           120.6       129.59      -16.08      
C           119.36      130.04      -14.15      
C           119.82      129.02      -15.06      
C           117.97      146.36      -22.64      
C           119.07      145.66      -22.97      
S           117.5       146.01      -20.98      
C           121.1       140.87      -19.68      
C           120.12      141.71      -19.08      
C           119.49      141.32      -17.88      
C           119.82      140.07      -17.38      
C           120.79      139.22      -17.96      
C           121.48      139.65      -19.05      
C           119.51      139.54      -15.99      
C           119.79      138.08      -16.14      
C           120.69      137.95      -17.24      
C           121.45      141.52      -21.05      
C           120.62      142.77      -21.16      
C           119.87      142.82      -19.96      
C           119.5       137.01      -15.35      
C           119.93      135.75      -15.8       
C           120.87      135.62      -16.85      
C           121.28      136.74      -17.6       
C           120.42      143.63      -22.19      
C           119.4       144.6       -22.05      
C           118.64      144.7       -20.85      
C           118.93      143.75      -19.83      
C           117.98      139.77      -15.61      
C           120.41      140.12      -14.89      
C           121.09      140.49      -22.13      
C           122.95      142.06      -21.28      
H           122.29      139.12      -19.51      
H           118.73      142.0       -17.47      
H           121.06      143.56      -23.02      
H           118.27      143.69      -19.0       
H           118.85      137.09      -14.52      
H           121.9       136.62      -18.49      
H           117.9       140.87      -15.53      
H           117.71      139.39      -14.61      
H           117.31162   139.41218   -16.39315   
H           121.37      139.62      -14.87      
H           119.94      139.77      -13.89      
H           120.63741   141.18599   -14.88289   
H           123.06      142.39      -22.26      
H           123.09      142.92      -20.62      
H           123.6927    141.34642   -20.92321   
H           121.78      139.61      -22.08      
H           121.36      140.89      -23.17      
H           120.05804   140.14366   -22.07345   
H           119.0       134.47      -14.31      
H           119.52      145.72      -23.97      
S           121.32      133.91      -17.06      
C           119.67      134.5       -15.17      
C           120.24      133.45      -15.77      
C           115.37      148.98      -25.02      
C           116.8       148.87      -25.25      
C           114.94      148.32      -23.86      
N           117.54      149.44      -26.2       
N           118.85      148.03      -25.03      
O           118.81      148.93      -26.03      
H           115.39      146.92      -22.27      
H           113.92      148.5       -23.51      
C           115.81      147.46      -23.1       
C           117.65      147.95      -24.53      
C           117.17      147.26      -23.38      
C           103.77      153.7       -35.96      
C           103.6       152.78      -34.94      
S           105.29      154.64      -35.76      
C           107.8       151.65      -30.69      
C           108.26      152.62      -31.62      
C           109.51      153.26      -31.52      
C           110.3       152.92      -30.43      
C           109.88      151.89      -29.52      
C           108.62      151.27      -29.71      
C           111.82      153.13      -30.34      
C           112.09      152.53      -28.98      
C           110.97      151.72      -28.54      
C           106.44      151.08      -31.08      
C           106.05      152.03      -32.18      
C           107.16      152.82      -32.57      
C           113.33      152.38      -28.36      
C           113.54      151.36      -27.35      
C           112.38      150.67      -26.85      
C           111.07      150.88      -27.39      
C           104.92      151.92      -32.95      
C           104.74      152.78      -34.05      
C           105.82      153.71      -34.39      
C           107.02      153.68      -33.64      
C           112.08      154.64      -30.39      
C           112.65      152.38      -31.47      
C           105.45      151.25      -29.82      
C           106.43      149.55      -31.64      
H           108.22      150.54      -29.02      
H           109.79      153.96      -32.27      
H           104.2       151.16      -32.73      
H           107.88      154.38      -33.88      
H           114.19      152.95      -28.78      
H           110.22      150.27      -27.02      
H           113.0       154.92      -30.76      
H           111.37      154.91      -31.16      
H           111.79957   155.16491   -29.4768    
H           112.13      152.6       -32.37      
H           113.53      152.91      -31.72      
H           112.69407   151.2929    -31.40389   
H           105.85      148.8       -31.03      
H           105.95      149.39      -32.64      
H           107.42822   149.12932   -31.76121   
H           105.86      150.68      -29.01      
H           104.46      150.84      -30.04      
H           105.44297   152.2768    -29.45429   
H           115.76      151.23      -27.02      
H           102.74      152.17      -34.74      
S           112.81      149.42      -25.65      
C           114.75      150.86      -26.72      
C           114.49      149.83      -25.8       
C           101.04      154.58      -39.4       
C           100.85      153.47      -38.46      
C           102.21      155.37      -39.07      
N           99.8        152.59      -38.52      
N           101.0       152.28      -36.57      
O           99.83       151.98      -37.3       
H           103.91      155.64      -37.98      
H           102.35      156.33      -39.61      
C           103.05      155.04      -38.0       
C           101.67      153.2       -37.3       
C           102.88      153.94      -37.11      
H           38.27       42.42       37.52       
H           100.53      154.73      -40.37      
