612

C           21.04       22.57       8.75        
C           21.27       22.6        10.1        
S           19.6        21.59       8.33        
C           17.64       19.89       14.23       
C           17.27       19.7        12.85       
C           16.13       18.77       12.54       
C           15.34       18.33       13.58       
C           15.82       18.43       14.94       
C           16.9        19.24       15.23       
C           14.12       17.37       13.61       
C           14.05       17.0        15.06       
C           15.0        17.66       15.84       
C           18.89       20.71       14.22       
C           19.13       21.03       12.75       
C           18.14       20.48       11.95       
C           13.03       16.26       15.77       
C           13.09       16.2        17.21       
C           14.13       16.9        17.92       
C           15.13       17.62       17.22       
C           20.15       21.8        12.18       
C           20.19       22.02       10.83       
C           19.2        21.43       10.01       
C           18.15       20.72       10.56       
C           14.37       16.1        12.75       
C           12.79       18.11       13.25       
C           20.01       19.77       14.79       
C           18.71       22.0        15.05       
H           17.26       19.28       16.21       
H           15.92       18.52       11.47       
H           21.09       21.96       12.77       
H           17.42       20.26       9.87        
H           12.14       15.86       15.31       
H           15.96       18.09       17.75       
H           14.61       16.36       11.75       
H           13.43       15.58       12.49       
H           15.08877    15.40237    13.17985    
H           12.66       18.9        14.01       
H           11.97       17.37       13.4        
H           12.73887    18.55559    12.25655    
H           19.61       22.68       15.09       
H           17.96       22.58       14.49       
H           18.42043    21.83756    16.0882     
H           19.62       19.34       15.75       
H           20.87       20.34       15.05       
H           20.23213    18.96028    14.09493    
H           11.3        14.96       17.79       
H           22.22       22.9        10.59       
S           13.94       16.75       19.64       
C           12.18       15.6        18.14       
C           12.49       15.81       19.45       
C           24.12       22.47       5.65        
C           22.9        23.1        5.41        
C           24.24       22.03       6.91        
N           22.41       23.59       4.31        
N           20.85       23.89       5.98        
O           21.23       24.12       4.65        
H           23.45       21.82       8.92        
H           25.18       21.57       7.22        
C           23.26       22.15       7.92        
C           21.91       23.3        6.43        
C           22.08       22.77       7.76        
C           39.0        22.06       -1.7        
C           38.69       21.18       -0.65       
S           37.55       22.93       -2.13       
C           32.97       20.64       1.61        
C           33.19       21.64       0.64        
C           32.22       22.45       0.16        
C           30.95       22.35       0.75        
C           30.79       21.41       1.77        
C           31.74       20.53       2.23        
C           29.67       23.28       0.58        
C           28.68       22.54       1.44        
C           29.4        21.62       2.27        
C           34.29       19.84       1.91        
C           35.28       20.59       0.94        
C           34.59       21.55       0.18        
C           27.45       23.06       1.8         
C           26.87       22.53       2.97        
C           27.54       21.58       3.76        
C           28.79       21.09       3.37        
C           36.6        20.43       0.7         
C           37.3        21.21       -0.31       
C           36.55       22.16       -1.02       
C           35.15       22.31       -0.85       
C           29.28       23.19       -0.91       
C           29.79       24.73       1.06        
C           34.0        18.35       1.62        
C           34.82       19.95       3.41        
H           31.62       19.89       3.05        
H           32.42       23.09       -0.74       
H           37.19       19.74       1.27        
H           34.53       23.0        -1.48       
H           26.89       23.69       1.14        
H           29.28       20.37       3.99        
H           30.13       23.54       -1.44       
H           28.51       23.87       -1.18       
H           29.11713    22.15614    -1.21449    
H           29.84       24.9        2.1         
H           28.84       25.28       0.88        
H           30.5544     25.31038    0.54332     
H           34.16       19.27       4.02        
H           35.81       19.48       3.4         
H           34.82687    20.95326    3.83604     
H           33.05       18.08       2.1         
H           33.63       18.32       0.59        
H           34.81991    17.66324    1.83023     
H           24.87       23.53       2.91        
H           39.48       20.53       -0.18       
S           26.64       21.2        5.19        
C           25.54       22.81       3.45        
C           25.27       22.28       4.73        
C           42.53       22.27       -4.21       
C           42.44       21.26       -3.23       
C           41.52       23.19       -4.27       
N           43.27       20.27       -2.81       
N           41.39       20.29       -1.51       
O           42.6        19.65       -1.78       
H           39.47       23.73       -3.82       
H           41.51       24.07       -4.98       
C           40.3        23.05       -3.54       
C           41.27       21.19       -2.41       
C           40.16       22.11       -2.53       
C           56.37       29.78       -9.14       
C           55.15       30.3        -8.99       
S           56.26       28.04       -9.1        
C           50.09       27.06       -8.33       
C           51.18       26.16       -8.56       
C           51.12       24.78       -8.28       
C           49.85       24.34       -7.73       
C           48.78       25.22       -7.53       
C           48.88       26.53       -7.9        
C           49.61       22.95       -7.19       
C           48.18       23.08       -6.7        
C           47.7        24.42       -6.93       
C           50.31       28.52       -8.66       
C           51.83       28.42       -8.92       
C           52.29       27.07       -8.99       
C           47.26       22.13       -6.08       
C           45.97       22.48       -5.79       
C           45.53       23.83       -6.1        
C           46.41       24.8        -6.61       
C           52.72       29.51       -9.05       
C           54.08       29.28       -9.03       
C           54.53       27.98       -9.2        
C           53.64       26.87       -9.25       
C           50.64       22.64       -6.11       
C           49.66       21.93       -8.36       
C           49.92       29.42       -7.5        
C           49.44       28.8        -9.9        
H           48.07       27.26       -7.78       
H           51.98       24.09       -8.46       
H           52.37       30.52       -8.91       
H           54.05       25.9        -9.42       
H           47.46       21.05       -5.94       
H           46.02       25.8        -6.84       
H           51.61       22.56       -6.48       
H           50.68       23.48       -5.42       
H           50.44651    21.82303    -5.41486    
H           50.66       22.06       -8.76       
H           49.41       20.9        -8.02       
H           48.99309    22.19383    -9.18081    
H           49.56       28.07       -10.64      
H           48.38       28.85       -9.56       
H           49.67968    29.73051    -10.4146    
H           49.56       30.27       -7.89       
H           49.11       28.91       -7.05       
H           50.74611    29.51258    -6.79496    
H           44.96       20.78       -4.73       
H           54.91       31.37       -8.78       
S           43.9        24.06       -5.55       
C           44.87       21.76       -5.14       
C           43.74       22.49       -4.92       
C           60.07       32.11       -9.5        
C           59.01       32.41       -8.54       
C           59.87       31.01       -10.23      
N           59.02       33.48       -7.7        
N           57.22       32.15       -7.24       
O           57.92       33.29       -6.92       
H           58.77       29.24       -10.56      
H           60.66       30.71       -10.91      
C           58.75       30.17       -9.99       
C           57.9        31.56       -8.29       
C           57.71       30.39       -9.14       
C           72.28       43.05       -12.49      
C           71.74       42.3        -13.55      
S           71.9        42.37       -10.95      
C           67.88       37.62       -12.57      
C           68.36       38.28       -11.43      
C           67.89       37.9        -10.18      
C           66.86       37.0        -10.04      
C           66.39       36.31       -11.14      
C           66.88       36.62       -12.42      
C           66.06       36.86       -8.79       
C           65.15       35.7        -9.27       
C           65.28       35.48       -10.65      
C           68.58       38.12       -13.85      
C           69.32       39.35       -13.19      
C           69.34       39.26       -11.84      
C           64.05       35.14       -8.6        
C           63.13       34.29       -9.28       
C           63.37       34.0        -10.63      
C           64.46       34.61       -11.38      
C           69.99       40.3        -13.86      
C           70.79       41.24       -13.11      
C           70.78       41.14       -11.64      
C           69.98       40.2        -11.03      
C           65.25       38.17       -8.55       
C           66.87       36.51       -7.49       
C           67.58       38.68       -14.88      
C           69.49       37.02       -14.49      
H           66.49       36.2        -13.38      
H           68.27       38.4        -9.26       
H           70.06       40.23       -14.92      
H           69.96       40.06       -9.95       
H           63.87       35.28       -7.53       
H           64.72       34.45       -12.43      
H           65.83       39.07       -8.43       
H           64.7        38.33       -9.46       
H           64.45471    38.08843    -7.80909    
H           67.37       37.4        -7.14       
H           66.18       36.31       -6.66       
H           67.61111    35.73292    -7.67708    
H           68.95       36.49       -15.21      
H           70.31       37.5        -14.93      
H           69.92449    36.3479     -13.75001   
H           66.9        37.89       -15.25      
H           68.14       39.08       -15.69      
H           66.79643    39.30827    -14.45645   
H           61.41       33.91       -7.8        
H           72.03       42.46       -14.55      
S           62.06       32.99       -11.2       
C           61.85       33.72       -8.78       
C           61.23       32.95       -9.69       
C           75.55       45.98       -12.09      
C           75.44       45.09       -13.21      
C           74.53       45.78       -11.17      
N           76.31       45.0        -14.25      
N           74.63       43.39       -14.47      
O           75.8        43.97       -15.02      
H           72.73       44.85       -10.59      
H           74.55       46.33       -10.29      
C           73.44       44.88       -11.38      
C           74.4        44.11       -13.35      
C           73.36       44.0        -12.43      
C           88.5        53.51       -5.13       
C           87.22       53.86       -4.83       
S           88.55       52.54       -6.53       
C           82.38       51.84       -8.1        
C           83.65       51.49       -8.61       
C           83.87       50.59       -9.69       
C           82.72       49.95       -10.25      
C           81.49       50.37       -9.75       
C           81.24       51.32       -8.74       
C           82.54       48.7        -11.17      
C           81.04       48.63       -11.31      
C           80.41       49.5        -10.37      
C           82.49       52.63       -6.78       
C           84.03       52.75       -6.67       
C           84.7        52.07       -7.74       
C           80.32       47.68       -12.07      
C           78.92       47.73       -11.81      
C           78.28       48.6        -10.85      
C           79.02       49.56       -10.13      
C           84.8        53.33       -5.65       
C           86.24       53.28       -5.68       
C           86.83       52.63       -6.83       
C           86.09       51.99       -7.81       
C           82.99       47.34       -10.52      
C           83.16       48.84       -12.55      
C           81.92       51.76       -5.54       
C           81.94       54.02       -6.82       
H           80.26       51.57       -8.44       
H           84.86       50.36       -10.01      
H           84.25       53.77       -4.82       
H           86.59       51.39       -8.56       
H           80.71       46.96       -12.78      
H           78.55       50.26       -9.42       
H           84.1        47.26       -10.71      
H           82.61       46.47       -10.98      
H           82.9285     47.2785     -9.43348    
H           84.24       48.74       -12.53      
H           82.92       48.03       -13.29      
H           82.9232     49.81679    -12.9718    
H           82.18       54.62       -5.95       
H           82.23       54.55       -7.68       
H           80.85259    54.07649    -6.77057    
H           81.38       52.3        -4.74       
H           81.2        51.16       -6.07       
H           82.57819    50.96177    -5.1969     
H           78.26       46.01       -13.11      
H           86.92       54.54       -4.04       
S           76.57       48.21       -10.77      
C           77.96       46.81       -12.44      
C           76.75       46.81       -11.81      
C           92.27       54.6        -3.13       
C           91.25       55.53       -3.15       
C           92.02       53.38       -3.63       
N           91.16       56.69       -2.61       
N           89.05       56.15       -3.61       
O           89.85       57.06       -2.87       
H           90.76       52.01       -4.72       
H           92.77       52.59       -3.66       
C           90.76       53.0        -4.29       
C           89.95       55.18       -3.82       
C           89.74       53.89       -4.5        
C           108.09      56.51       0.96        
C           107.68      55.5        0.1         
S           106.71      57.21       1.8         
C           101.64      54.48       -0.77       
C           101.98      55.52       0.11        
C           101.04      56.38       0.68        
C           99.71       56.28       0.23        
C           99.41       55.16       -0.58       
C           100.32      54.21       -1.0        
C           98.49       57.18       0.38        
C           97.4        56.41       -0.33       
C           98.01       55.26       -0.88       
C           102.91      53.93       -1.46       
C           104.05      54.62       -0.64       
C           103.46      55.48       0.31        
C           96.12       56.79       -0.66       
C           95.36       55.85       -1.42       
C           95.96       54.61       -1.9        
C           97.32       54.33       -1.61       
C           105.41      54.43       -0.79       
C           106.25      55.24       0.07        
C           105.59      56.17       0.96        
C           104.27      56.25       1.12        
C           98.92       58.51       -0.32       
C           98.1        57.34       1.87        
C           102.97      54.29       -2.92       
C           103.2       52.43       -1.35       
H           100.11      53.45       -1.77       
H           101.38      57.18       1.36        
H           105.82      53.64       -1.46       
H           103.87      56.97       1.84        
H           95.6        57.7        -0.29       
H           97.79       53.52       -2.14       
H           99.75       58.88       0.29        
H           99.34       58.43       -1.3        
H           98.13319    59.26169    -0.38323    
H           99.0        57.61       2.38        
H           97.41       58.12       2.1         
H           97.73716    56.38666    2.25418     
H           103.03      51.95       -2.28       
H           104.22      52.28       -1.06       
H           102.57185   51.9903     -0.57528    
H           103.82      53.8        -3.32       
H           102.14      53.82       -3.44       
H           102.99174   55.34054    -3.2098     
H           93.46       56.96       -1.64       
H           108.35      54.99       -0.65       
S           94.74       53.76       -2.83       
C           94.01       56.06       -1.87       
C           93.55       54.95       -2.56       
C           111.91      58.67       1.04        
C           111.53      57.91       -0.09       
C           110.99      58.66       2.05        
N           112.07      57.82       -1.28       
N           110.13      56.69       -1.27       
O           111.21      57.0        -1.96       
H           109.16      57.73       2.96        
H           111.15      59.24       2.93        
C           109.74      57.95       2.08        
C           110.28      57.15       -0.06       
C           109.37      57.21       1.01        
C           121.05      72.1        2.95        
C           120.44      71.39       3.92        
S           121.34      71.12       1.51        
C           117.94      66.01       3.16        
C           118.59      66.48       2.0         
C           118.56      65.78       0.77        
C           117.81      64.62       0.77        
C           117.16      64.18       1.94        
C           117.32      64.76       3.22        
C           117.42      63.76       -0.44       
C           116.61      62.67       0.22        
C           116.39      63.03       1.6         
C           117.94      67.02       4.29        
C           118.81      68.13       3.71        
C           119.16      67.77       2.38        
C           115.71      61.8        -0.38       
C           114.75      61.1        0.42        
C           114.72      61.44       1.81        
C           115.48      62.44       2.4         
C           119.35      69.21       4.3         
C           120.03      70.12       3.52        
C           120.36      69.83       2.18        
C           119.91      68.7        1.58        
C           118.69      63.26       -1.12       
C           116.61      64.57       -1.48       
C           118.61      66.32       5.48        
C           116.51      67.41       4.73        
H           116.99      64.29       4.12        
H           119.16      66.07       -0.06       
H           119.12      69.43       5.37        
H           120.25      68.4        0.63        
H           115.72      61.67       -1.45       
H           115.41      62.64       3.51        
H           119.29      64.1        -1.49       
H           119.38      62.87       -0.49       
H           118.49425   62.58574    -1.95376    
H           117.22      65.45       -1.87       
H           116.32      63.92       -2.27       
H           115.73704   65.02795    -1.0149     
H           116.23      67.03       5.74        
H           116.52      68.48       4.73        
H           115.75563   67.18648    3.97563     
H           117.98      65.51       5.79        
H           118.68      66.89       6.35        
H           119.57822   65.85034    5.30659     
H           113.7       59.65       -0.97       
H           120.23      71.8        4.82        
S           113.53      60.4        2.58        
C           113.83      60.08       0.03        
C           113.09      59.6        1.07        
C           122.86      76.09       3.11        
C           122.74      75.26       4.29        
C           122.42      75.5        2.04        
N           123.11      75.48       5.56        
N           122.12      73.44       5.45        
O           122.67      74.37       6.26        
H           121.35      73.98       1.03        
H           122.5       76.04       1.12        
C           121.77      74.23       2.02        
C           122.23      73.89       4.23        
C           121.66      73.38       3.05        
C           129.42      91.33       1.06        
C           128.48      90.84       0.2         
S           129.43      90.5        2.56        
C           126.11      85.33       1.14        
C           126.89      85.77       2.19        
C           127.11      84.89       3.28        
C           126.4       83.71       3.34        
C           125.55      83.27       2.33        
C           125.56      84.05       1.15        
C           126.06      82.89       4.58        
C           125.29      81.71       3.93        
C           124.91      81.97       2.62        
C           126.03      86.3        -0.05       
C           126.84      87.42       0.59        
C           127.34      87.12       1.89        
C           124.99      80.46       4.42        
C           124.33      79.49       3.63        
C           123.87      79.82       2.34        
C           124.25      81.08       1.79        
C           127.15      88.66       -0.01       
C           128.04      89.56       0.65        
C           128.48      89.13       1.97        
C           128.05      88.01       2.62        
C           125.15      83.79       5.52        
C           127.43      82.52       5.27        
C           124.53      86.81       -0.24       
C           126.71      85.89       -1.41       
H           124.92      83.82       0.3         
H           127.71      85.29       4.13        
H           126.68      88.98       -0.96       
H           128.52      87.65       3.56        
H           125.17      80.29       5.5         
H           123.91      81.33       0.73        
H           125.77      84.26       6.25        
H           124.89      84.7        4.96        
H           124.29933   83.29084    5.984       
H           128.13      83.38       5.26        
H           127.09      82.32       6.3         
H           127.96231   81.69996    4.78805     
H           126.81      86.8        -2.01       
H           127.69      85.56       -1.12       
H           126.2067    85.2357     -2.12182    
H           123.83      85.93       -0.17       
H           124.37      87.33       -1.21       
H           124.16428   87.48517    0.53363     
H           124.17      77.73       4.93        
H           128.22      91.32       -0.74       
S           123.07      78.5        1.56        
C           124.0       78.13       3.95        
C           123.4       77.44       2.93        
C           132.16      94.81       1.19        
C           132.61      93.5        1.03        
C           130.81      94.91       1.27        
N           133.85      93.04       0.94        
N           132.46      91.38       0.54        
O           133.79      91.7        0.57        
H           128.85      93.9        1.35        
H           130.33      95.9        1.32        
C           129.87      93.78       1.16        
C           131.68      92.37       0.83        
C           130.31      92.49       0.99        
C           141.05      108.59      -0.84       
C           139.95      108.34      -1.64       
S           141.59      107.13      -0.01       
C           136.74      103.2       -0.96       
C           138.06      103.14      -0.42       
C           138.55      102.04      0.35        
C           137.71      101.03      0.68        
C           136.41      101.07      0.08        
C           135.94      102.16      -0.65       
C           137.84      99.77       1.5         
C           136.55      99.07       1.39        
C           135.69      99.87       0.55        
C           136.42      104.58      -1.55       
C           137.77      105.21      -1.39       
C           138.71      104.4       -0.71       
C           136.15      97.89       1.93        
C           134.89      97.41       1.5         
C           134.07      98.22       0.71        
C           134.47      99.38       0.17        
C           138.13      106.47      -1.84       
C           139.33      107.03      -1.35       
C           140.2       106.18      -0.56       
C           139.96      104.85      -0.32       
C           138.0       99.95       2.99        
C           138.98      98.88       0.82        
C           135.35      105.34      -0.68       
C           136.17      104.58      -3.07       
H           134.92      102.26      -0.86       
H           139.52      102.1       0.83        
H           137.42      107.0       -2.51       
H           140.63      104.26      0.29        
H           136.86      97.33       2.55        
H           133.87      99.96       -0.57       
H           138.9       100.58      3.02        
H           138.23      99.07       3.56        
H           137.28576   100.67146   3.3868      
H           138.74      98.97       -0.27       
H           138.87      97.86       1.08        
H           139.99494   99.18597    1.07373     
H           135.91      105.64      -3.33       
H           137.11      104.19      -3.45       
H           135.26556   104.03733   -3.34495    
H           134.35      104.87      -0.73       
H           135.19      106.35      -1.07       
H           135.52653   105.41061   0.39329     
H           134.63      95.51       2.63        
H           139.53      109.12      -2.31       
S           132.59      97.4        0.18        
C           134.21      96.18       1.88        
C           133.01      96.0        1.22        
C           143.37      112.43      -0.9        
C           142.61      111.96      -1.99       
C           143.19      111.59      0.12        
N           142.32      112.58      -3.13       
N           141.33      110.54      -3.2        
O           141.56      111.72      -3.87       
H           142.49      109.64      1.03        
H           143.55      111.87      1.14        
C           142.51      110.27      0.12        
C           141.94      110.69      -2.06       
C           141.91      109.79      -0.96       
C           150.92      127.23      -1.3        
C           149.86      126.87      -2.02       
S           151.45      125.94      -0.18       
C           147.12      121.41      -1.74       
C           148.12      121.68      -0.75       
C           148.48      120.69      0.11        
C           147.78      119.49      0.12        
C           146.77      119.26      -0.85       
C           146.43      120.21      -1.79       
C           147.95      118.24      1.07        
C           146.9       117.25      0.42        
C           146.25      117.87      -0.67       
C           146.99      122.64      -2.67       
C           148.06      123.64      -2.12       
C           148.74      122.99      -1.08       
C           146.62      115.96      0.67        
C           145.54      115.33      0.02        
C           144.95      116.02      -1.02       
C           145.25      117.26      -1.4        
C           148.31      124.93      -2.41       
C           149.36      125.58      -1.75       
C           150.14      124.88      -0.79       
C           149.75      123.6       -0.42       
C           147.67      118.64      2.5         
C           149.36      117.61      0.84        
C           145.56      123.32      -2.52       
C           147.27      122.21      -4.09       
H           145.64      119.98      -2.43       
H           149.31      120.87      0.71        
H           147.81      125.46      -3.14       
H           150.31      123.12      0.37        
H           147.06      115.54      1.55        
H           144.92      117.72      -2.38       
H           148.12      117.95      3.13        
H           148.12      119.6       2.71        
H           146.61629   118.76186   2.75088     
H           150.11      118.25      1.26        
H           149.49      116.7       1.4         
H           149.52707   117.50558   -0.23205    
H           146.42      121.69      -4.6        
H           147.4       123.08      -4.66       
H           148.14964   121.56636   -4.09715    
H           144.78      122.59      -2.67       
H           145.37      124.08      -3.34       
H           145.4238    123.63325   -1.4849     
H           145.22      113.29      0.93        
H           149.37      127.51      -2.74       
S           143.7       115.03      -1.79       
C           144.94      114.01      0.18        
C           143.99      113.72      -0.71       
C           152.72      131.41      -1.25       
C           153.23      130.29      -0.53       
C           151.66      130.92      -2.02       
N           154.35      130.27      0.19        
N           153.47      128.27      0.41        
O           154.51      129.11      0.72        
H           150.43      129.37      -2.79       
H           151.25      131.57      -2.76       
C           151.13      129.57      -2.02       
C           152.73      128.95      -0.4        
C           151.59      128.58      -1.26       
H           12.17       15.15       20.23       
H           153.23      132.35      -1.5        
