612

C           125.14      31.34       32.61       
C           126.2       30.94       33.33       
S           124.69      32.95       33.15       
C           128.79      34.14       37.73       
C           127.77      34.86       37.1        
C           127.17      36.02       37.61       
C           127.67      36.56       38.81       
C           128.8       35.86       39.38       
C           129.38      34.63       38.88       
C           127.32      37.77       39.65       
C           128.44      37.7        40.67       
C           129.22      36.56       40.55       
C           129.24      32.86       37.06       
C           128.12      32.87       36.02       
C           127.38      34.07       35.94       
C           128.75      38.61       41.67       
C           129.67      38.25       42.65       
C           130.55      37.18       42.51       
C           130.32      36.3        41.42       
C           127.84      31.84       35.15       
C           126.76      31.98       34.23       
C           126.05      33.22       34.18       
C           126.34      34.3        34.99       
C           125.93      37.58       40.32       
C           127.44      39.12       38.87       
C           129.18      31.64       38.0        
C           130.54      33.1        36.28       
H           130.18      34.09       39.37       
H           126.25      36.43       37.17       
H           128.32      30.84       35.33       
H           125.66      35.22       35.05       
H           128.14      39.51       41.85       
H           131.04      35.56       41.23       
H           125.15      37.93       39.65       
H           125.8       38.29       41.14       
H           125.7187    36.57281    40.67921    
H           128.28      39.14       38.2        
H           127.61      40.04       39.48       
H           126.59898   39.35002    38.21588    
H           130.38      32.36       35.52       
H           130.41      34.12       35.81       
H           131.47263   33.00033    36.83531    
H           129.9       31.82       38.85       
H           129.45      30.66       37.56       
H           128.23054   31.58246    38.53227    
H           129.51      39.86       44.24       
H           126.64      29.93       33.25       
S           131.79      37.11       43.7        
C           130.08      38.99       43.83       
C           131.19      38.53       44.49       
C           123.1       29.17       29.35       
C           123.88      28.42       30.31       
C           122.94      30.51       29.64       
N           124.3       27.16       30.37       
N           125.24      28.21       32.06       
O           125.12      27.03       31.44       
H           123.47      32.27       30.73       
H           122.26      31.17       29.0        
C           123.71      31.23       30.66       
C           124.58      29.16       31.34       
C           124.46      30.58       31.61       
C           115.31      21.78       16.38       
C           115.25      21.32       17.69       
S           116.26      23.26       16.38       
C           117.81      23.99       22.44       
C           118.05      24.65       21.22       
C           118.91      25.76       21.11       
C           119.57      26.25       22.24       
C           119.31      25.66       23.47       
C           118.5       24.45       23.54       
C           120.62      27.37       22.41       
C           120.75      27.49       23.9        
C           120.02      26.45       24.59       
C           116.76      22.83       22.29       
C           116.76      22.78       20.74       
C           117.42      23.9        20.13       
C           121.61      28.35       24.58       
C           121.72      28.15       25.99       
C           120.87      27.22       26.62       
C           120.06      26.25       25.93       
C           116.02      21.92       19.99       
C           115.98      22.11       18.62       
C           116.73      23.21       18.03       
C           117.52      24.16       18.72       
C           120.16      28.67       21.64       
C           122.01      26.92       21.97       
C           115.4       23.34       22.89       
C           117.25      21.42       22.72       
H           118.25      24.01       24.48       
H           119.19      26.07       20.07       
H           115.51      21.06       20.37       
H           118.05      25.03       18.36       
H           122.15      29.14       24.07       
H           119.57      25.42       26.45       
H           120.19      28.5        20.53       
H           120.74      29.47       22.04       
H           119.10598   28.92638    21.74683    
H           122.35      26.14       22.65       
H           122.6       27.82       22.03       
H           122.13469   26.51658    20.96511    
H           116.46      20.72       22.44       
H           118.17      21.27       22.12       
H           117.54579   21.34064    23.76609    
H           114.94      22.58       23.47       
H           115.62      24.06       23.65       
H           114.71126   23.80863    22.18706    
H           123.17      29.85       26.63       
H           114.79      20.38       18.0        
S           121.14      27.38       28.33       
C           122.56      28.97       26.94       
C           122.43      28.61       28.23       
C           112.68      21.03       12.92       
C           112.47      20.32       14.18       
C           113.72      21.87       12.96       
N           111.58      19.44       14.45       
N           113.0       19.8        16.22       
O           111.93      19.15       15.74       
H           115.48      22.7        13.83       
H           114.03      22.38       12.04       
C           114.6       22.08       14.06       
C           113.35      20.63       15.26       
C           114.49      21.52       15.25       
C           102.81      15.42       0.62        
C           103.79      16.3        0.43        
S           102.6       15.18       2.35        
C           107.66      18.3        4.68        
C           106.47      17.64       5.17        
C           106.23      17.4        6.49        
C           107.15      17.95       7.39        
C           108.41      18.56       6.99        
C           108.65      18.69       5.62        
C           107.05      17.78       8.87        
C           108.26      18.6        9.33        
C           109.05      18.9        8.25        
C           107.54      18.43       3.17        
C           106.25      17.7        2.9         
C           105.65      17.21       4.06        
C           108.65      18.81       10.64       
C           109.87      19.61       10.86       
C           110.6       20.0        9.7         
C           110.23      19.68       8.39        
C           105.74      17.46       1.63        
C           104.54      16.69       1.58        
C           103.95      16.15       2.74        
C           104.5       16.42       3.98        
C           107.09      16.25       9.16        
C           105.75      18.37       9.35        
C           108.74      17.63       2.59        
C           107.52      19.9        2.55        
H           109.57      19.23       5.29        
H           105.36      16.93       6.82        
H           106.16      17.86       0.78        
H           103.94      16.06       4.81        
H           107.96      18.7        11.47       
H           110.88      19.82       7.48        
H           106.44      15.96       9.93        
H           106.75      15.59       8.34        
H           108.10833   15.91295    9.35363     
H           104.95      17.86       8.83        
H           105.7       18.18       10.36       
H           105.65104   19.4161     9.0602      
H           108.53      20.12       2.09        
H           106.83      19.98       1.77        
H           107.27489   20.69301    3.2565      
H           109.01      18.02       1.63        
H           109.57      17.83       3.3         
H           108.54623   16.55736    2.59        
H           109.85      20.12       13.01       
H           104.08      16.49       -0.63       
S           112.12      20.73       10.12       
C           110.36      20.28       12.01       
C           111.63      20.82       11.81       
C           100.7       12.75       -2.24       
C           101.04      14.08       -2.62       
C           100.92      12.43       -0.87       
N           100.78      14.78       -3.78       
N           101.88      16.15       -2.27       
O           101.16      16.04       -3.49       
H           101.95      12.97       0.94        
H           100.66      11.5        -0.47       
C           101.58      13.36       0.0         
C           101.7       15.02       -1.65       
C           101.99      14.64       -0.29       
C           100.77      0.29        -13.01      
C           101.49      0.28        -11.85      
S           100.01      1.87        -13.21      
C           101.3       4.7         -7.69       
C           100.82      5.0         -9.02       
C           100.3       6.26        -9.38       
C           100.09      7.13        -8.32       
C           100.48      6.82        -7.0        
C           101.2       5.62        -6.68       
C           99.41       8.54        -8.37       
C           99.67       9.04        -6.97       
C           100.21      8.0         -6.11       
C           101.93      3.33        -7.75       
C           101.6       2.88        -9.18       
C           100.84      3.86        -9.84       
C           99.58       10.31       -6.42       
C           99.89       10.55       -5.13       
C           100.29      9.49        -4.31       
C           100.48      8.24        -4.77       
C           101.89      1.67        -9.78       
C           101.37      1.51        -11.07      
C           100.54      2.45        -11.68      
C           100.39      3.71        -11.09      
C           97.91       8.32        -8.59       
C           100.08      9.45        -9.43       
C           101.36      2.3         -6.75       
C           103.47      3.5         -7.53       
H           101.51      5.38        -5.64       
H           99.95       6.52        -10.38      
H           102.44      0.84        -9.32       
H           99.99       4.51        -11.64      
H           99.3        11.13       -7.08       
H           100.82      7.43        -4.17       
H           97.72       8.01        -9.58       
H           97.59       7.53        -7.89       
H           97.23525    9.12535     -8.29978    
H           99.96       9.04        -10.41      
H           99.64       10.48       -9.39       
H           101.14959   9.49926     -9.22593    
H           103.56      3.86        -6.47       
H           103.89      2.54        -7.69       
H           103.90163   4.19345     -8.25175    
H           101.32      2.8         -5.81       
H           102.1       1.43        -6.61       
H           100.37341   1.91113     -7.00205    
H           99.46       12.74       -4.87       
H           101.98      -0.59       -11.52      
S           100.57      10.06       -2.68       
C           99.76       11.78       -4.45       
C           100.26      11.74       -3.19       
C           100.31      -2.45       -16.51      
C           101.52      -2.31       -15.81      
C           99.34       -1.61       -15.98      
N           102.69      -2.87       -16.13      
N           102.93      -1.6        -14.32      
O           103.48      -2.54       -15.12      
H           98.55       -0.28       -14.48      
H           98.36       -1.64       -16.48      
C           99.48       -0.85       -14.81      
C           101.67      -1.5        -14.64      
C           100.64      -0.65       -14.14      
C           97.15       -2.48       -31.98      
C           98.44       -2.47       -31.6       
S           96.07       -3.26       -30.8       
C           100.18      -4.34       -26.1       
C           98.84       -4.59       -26.49      
C           97.92       -5.06       -25.58      
C           98.18       -4.98       -24.22      
C           99.49       -4.66       -23.83      
C           100.52      -4.48       -24.77      
C           97.37       -5.24       -22.93      
C           98.21       -4.68       -21.82      
C           99.51       -4.34       -22.4       
C           100.99      -4.0        -27.35      
C           99.83       -3.81       -28.41      
C           98.65       -4.38       -27.9       
C           97.98       -4.41       -20.5       
C           98.96       -3.84       -19.78      
C           100.24      -3.6        -20.27      
C           100.52      -3.83       -21.63      
C           99.89       -3.36       -29.66      
C           98.69       -3.21       -30.36      
C           97.47       -3.72       -29.81      
C           97.49       -4.43       -28.67      
C           96.95       -6.74       -22.64      
C           96.11       -4.35       -22.89      
C           101.87      -5.24       -27.71      
C           101.79      -2.72       -27.28      
H           101.51      -4.29       -24.45      
H           96.95       -5.35       -25.98      
H           100.78      -2.79       -30.04      
H           96.62       -4.76       -28.24      
H           96.94       -4.5        -20.09      
H           101.46      -3.43       -22.09      
H           96.44       -7.25       -23.37      
H           96.19       -6.71       -21.84      
H           97.80235    -7.32686    -22.29766   
H           95.54       -4.49       -23.8       
H           95.45       -4.52       -22.06      
H           96.37077    -3.2928     -22.93934   
H           102.19      -2.57       -28.27      
H           101.02      -1.93       -27.21      
H           102.57112   -2.72697    -26.5198    
H           102.49      -5.54       -26.77      
H           101.14      -6.11       -27.89      
H           102.51231   -5.1183     -28.58219   
H           97.96       -3.7        -17.81      
H           99.28       -2.05       -32.19      
S           101.26      -2.74       -19.11      
C           98.88       -3.58       -18.37      
C           100.11      -3.07       -17.84      
C           95.84       -0.26       -35.55      
C           96.83       -1.3        -35.69      
C           95.16       -0.26       -34.43      
N           97.46       -1.73       -36.78      
N           98.32       -2.67       -35.04      
O           98.55       -2.52       -36.38      
H           95.09       -0.86       -32.35      
H           94.45       0.55        -34.32      
C           95.6        -1.02       -33.26      
C           97.26       -2.07       -34.59      
C           96.64       -1.91       -33.25      
C           90.18       9.4         -48.14      
C           90.69       8.19        -48.33      
S           89.91       9.67        -46.42      
C           93.16       4.78        -43.95      
C           92.31       5.78        -43.59      
C           92.13       6.12        -42.18      
C           92.64       5.25        -41.24      
C           93.4        4.12        -41.68      
C           93.67       3.91        -42.99      
C           92.53       5.25        -39.7       
C           93.35       4.05        -39.34      
C           93.86       3.34        -40.5       
C           93.35       4.74        -45.47      
C           92.25       5.78        -45.86      
C           91.82       6.49        -44.76      
C           93.69       3.63        -38.02      
C           94.33       2.4         -37.82      
C           94.71       1.62        -38.95      
C           94.52       2.1         -40.32      
C           91.87       6.27        -47.12      
C           91.19       7.48        -47.13      
C           90.75       8.19        -45.99      
C           91.09       7.68        -44.72      
C           91.06       5.15        -39.29      
C           93.04       6.67        -39.29      
C           93.02       3.26        -45.93      
C           94.73       5.25        -45.97      
H           94.27       2.97        -43.28      
H           91.44       6.9         -41.92      
H           91.95       5.7         -48.06      
H           90.9        8.26        -43.79      
H           93.52       4.29        -37.2       
H           94.86       1.56        -41.19      
H           91.0        5.27        -38.17      
H           90.54       5.87        -39.83      
H           90.62736    4.20671     -39.62334   
H           92.32       7.44        -39.64      
H           93.18       6.7         -38.26      
H           93.97618    6.92532     -39.78646   
H           94.67       5.25        -47.09      
H           94.95       6.18        -45.55      
H           95.54715    4.60338     -45.65024   
H           93.52       2.59        -45.29      
H           91.99       2.97        -45.63      
H           92.98502    3.09908     -47.00749   
H           94.57       2.38        -35.61      
H           90.77       7.8         -49.3       
S           95.57       0.15        -38.39      
C           94.7        1.8         -36.57      
C           95.3        0.53        -36.67      
C           88.29       11.77       -51.36      
C           88.4        12.26       -50.0       
C           88.71       10.45       -51.51      
N           88.2        13.47       -49.56      
N           89.13       12.25       -47.89      
O           88.58       13.47       -48.29      
H           89.42       8.67        -50.75      
H           88.72       9.98        -52.46      
C           89.11       9.64        -50.4       
C           89.02       11.46       -48.95      
C           89.43       10.12       -49.12      
C           93.53       19.16       -64.94      
C           93.14       17.85       -64.95      
S           92.41       20.11       -63.96      
C           89.93       15.3        -60.38      
C           90.13       16.69       -60.31      
C           89.81       17.39       -59.17      
C           89.38       16.7        -58.05      
C           89.09       15.31       -58.13      
C           89.29       14.59       -59.33      
C           89.05       17.25       -56.69      
C           88.58       16.03       -55.95      
C           88.7        14.89       -56.81      
C           90.66       14.82       -61.61      
C           91.08       16.1        -62.37      
C           90.73       17.19       -61.55      
C           88.28       15.81       -54.57      
C           88.24       14.49       -54.07      
C           88.36       13.4        -55.02      
C           88.6        13.53       -56.39      
C           91.81       16.25       -63.5       
C           92.28       17.48       -63.89      
C           91.86       18.63       -63.12      
C           91.15       18.5        -61.94      
C           88.05       18.41       -56.93      
C           90.27       17.8        -55.91      
C           89.61       14.0        -62.42      
C           91.92       14.01       -61.2       
H           89.06       13.53       -59.37      
H           89.85       18.45       -59.16      
H           92.1        15.32       -64.05      
H           90.98       19.32       -61.27      
H           88.1        16.59       -53.84      
H           88.56       12.72       -57.15      
H           88.6        19.34       -57.0       
H           87.45       18.3        -57.85      
H           87.36237    18.51134    -56.09036   
H           90.29       18.84       -56.05      
H           90.13       17.79       -54.86      
H           91.22143    17.32428    -56.14786   
H           91.76       12.97       -61.43      
H           92.73       14.25       -61.94      
H           92.2827     14.15935    -60.18302   
H           89.32       13.16       -61.83      
H           90.04       13.55       -63.24      
H           88.80695    14.6564     -62.75518   
H           88.28       14.69       -51.93      
H           93.59       17.16       -65.59      
S           88.23       11.86       -54.13      
C           88.23       13.96       -52.71      
C           88.25       12.62       -52.52      
C           95.63       21.16       -68.29      
C           95.77       19.75       -68.08      
C           94.82       21.71       -67.46      
N           96.49       18.85       -68.76      
N           95.5        17.8        -67.11      
O           96.39       17.64       -68.12      
H           93.63       21.75       -65.67      
H           94.61       22.69       -67.64      
C           94.25       21.14       -66.3       
C           95.15       19.08       -66.98      
C           94.28       19.83       -65.98      
C           104.22      31.01       -78.47      
C           104.09      31.23       -77.12      
S           103.92      29.37       -78.82      
C           101.07      27.62       -73.44      
C           101.49      26.98       -74.63      
C           101.19      25.71       -74.99      
C           100.31      25.01       -74.12      
C           99.8        25.64       -72.94      
C           100.18      26.95       -72.63      
C           99.8        23.6        -74.14      
C           99.0        23.51       -72.84      
C           99.01       24.7        -72.18      
C           101.93      28.88       -73.18      
C           102.53      29.08       -74.59      
C           102.19      27.96       -75.46      
C           98.25       22.46       -72.39      
C           97.52       22.57       -71.21      
C           97.68       23.78       -70.44      
C           98.45       24.86       -70.9       
C           103.3       30.12       -75.06      
C           103.63      30.12       -76.39      
C           103.4       29.01       -77.26      
C           102.67      27.93       -76.75      
C           100.98      22.56       -74.19      
C           98.97       23.37       -75.44      
C           102.97      28.67       -72.08      
C           100.87      30.02       -72.85      
H           99.74       27.51       -71.82      
H           101.65      25.25       -75.85      
H           103.57      30.92       -74.43      
H           102.54      27.03       -77.36      
H           98.35       21.54       -72.99      
H           98.56       25.82       -70.36      
H           100.52      21.57       -74.26      
H           101.53      22.77       -75.08      
H           101.66877   22.63975    -73.34897   
H           99.53       23.67       -76.33      
H           98.68       22.32       -75.56      
H           98.05877    23.96524    -75.38121   
H           100.29      29.71       -72.03      
H           101.31      30.94       -72.53      
H           100.14333   30.16533    -73.64933   
H           102.42      28.56       -71.09      
H           103.58      29.58       -72.07      
H           103.57091   27.78294    -72.2803    
H           96.58       20.63       -70.88      
H           104.09      32.2        -76.61      
S           96.82       23.7        -68.93      
C           96.8        21.61       -70.44      
C           96.36       22.02       -69.28      
C           105.16      33.83       -81.71      
C           104.31      34.27       -80.56      
C           105.51      32.49       -81.68      
N           103.62      35.36       -80.35      
N           103.2       33.88       -78.65      
O           102.98      35.15       -79.15      
H           105.5       30.62       -80.82      
H           105.9       32.02       -82.52      
C           105.17      31.63       -80.64      
C           103.95      33.31       -79.55      
C           104.41      31.99       -79.55      
C           111.93      41.62       -94.78      
C           111.71      40.28       -94.74      
S           111.04      42.44       -93.52      
C           109.46      37.53       -89.77      
C           109.17      38.89       -89.84      
C           108.41      39.57       -88.92      
C           107.89      38.82       -87.85      
C           108.28      37.44       -87.7       
C           109.05      36.82       -88.65      
C           106.7       39.18       -86.86      
C           106.74      37.98       -85.93      
C           107.56      36.91       -86.54      
C           110.1       36.97       -91.06      
C           110.08      38.28       -91.88      
C           109.85      39.39       -91.05      
C           105.9       37.75       -84.9       
C           105.93      36.49       -84.25      
C           106.79      35.49       -84.89      
C           107.57      35.68       -86.04      
C           110.59      38.44       -93.15      
C           110.91      39.79       -93.57      
C           110.49      40.89       -92.79      
C           109.94      40.69       -91.5       
C           105.35      39.46       -87.54      
C           107.18      40.4        -85.94      
C           109.08      35.91       -91.68      
C           111.53      36.43       -91.0       
H           109.13      35.75       -88.54      
H           108.06      40.58       -89.12      
H           110.92      37.62       -93.77      
H           109.72      41.53       -90.91      
H           105.11      38.49       -84.54      
H           108.0       34.78       -86.54      
H           105.53      40.24       -88.23      
H           104.57      39.52       -86.77      
H           105.0213    38.62776    -88.16243   
H           108.1       40.06       -85.43      
H           106.49      40.69       -85.11      
H           107.38613   41.32401    -86.48019   
H           111.74      35.72       -91.81      
H           112.34      37.19       -90.89      
H           111.72358   35.79908    -90.13249   
H           109.05      35.04       -91.05      
H           109.45      35.71       -92.7       
H           108.04991   36.26052    -91.74438   
H           104.28      36.26       -82.73      
H           112.2       39.57       -95.41      
S           106.62      33.92       -83.99      
C           105.11      35.79       -83.29      
C           105.51      34.59       -82.83      
C           114.91      43.99       -97.15      
C           114.99      42.57       -96.98      
C           113.67      44.44       -96.66      
N           115.87      41.68       -97.38      
N           114.38      40.57       -96.27      
O           115.48      40.44       -97.0       
H           111.85      44.24       -95.6       
H           113.37      45.51       -96.85      
C           112.75      43.7        -95.91      
C           114.0       41.83       -96.28      
C           112.87      42.38       -95.64      
C           122.92      52.83       -108.4      
C           122.44      51.62       -108.75     
S           123.16      52.98       -106.68     
C           120.12      47.82       -104.43     
C           120.88      48.98       -103.94     
C           120.88      49.32       -102.59     
C           120.13      48.59       -101.73     
C           119.28      47.54       -102.18     
C           119.3       47.11       -103.53     
C           119.78      48.95       -100.28     
C           118.7       47.86       -99.92      
C           118.58      46.98       -101.04     
C           120.3       47.77       -105.95     
C           121.15      48.98       -106.27     
C           121.44      49.69       -105.14     
C           118.08      47.63       -98.73      
C           117.23      46.48       -98.72      
C           117.18      45.66       -99.83      
C           117.83      45.87       -101.0      
C           121.5       49.53       -107.5      
C           122.09      50.88       -107.55     
C           122.42      51.47       -106.33     
C           122.16      50.87       -105.14     
C           119.15      50.33       -100.2      
C           121.01      48.86       -99.36      
C           118.83      47.91       -106.44     
C           121.08      46.56       -106.54     
H           118.77      46.13       -103.78     
H           121.41      50.23       -102.27     
H           121.4       49.01       -108.47     
H           122.5       51.44       -104.22     
H           118.22      48.27       -97.83      
H           117.62      45.14       -101.8      
H           119.52      50.73       -99.25      
H           119.63      50.92       -100.91     
H           118.08854   50.40836    -100.43509  
H           121.4       49.78       -99.15      
H           120.53      48.52       -98.44      
H           121.73382   48.11468    -99.68966   
H           120.79      46.44       -107.6      
H           122.11      46.81       -106.5      
H           120.76418   45.60552    -106.1189   
H           118.3       47.05       -106.09     
H           118.79      47.62       -107.5      
H           118.35837   48.84633    -106.14176  
H           116.3       46.5        -96.76      
H           122.26      51.35       -109.81     
S           116.07      44.25       -99.57      
C           116.39      45.97       -97.69      
C           115.88      44.74       -97.91      
C           124.17      56.28       -110.92     
C           124.17      54.95       -111.39     
C           123.73      56.36       -109.6      
N           124.68      54.54       -112.55     
N           123.91      52.69       -111.38     
O           124.41      53.18       -112.61     
H           123.0       55.5        -107.77     
H           123.84      57.3        -109.07     
C           123.27      55.27       -108.77     
C           123.69      53.8        -110.65     
C           123.3       53.97       -109.27     
H           131.46      38.73       45.52       
H           124.78      57.01       -111.36     
