612

C           78.75       31.1        0.53        
C           79.0        30.56       -0.73       
S           77.47       30.24       1.33        
C           75.99       25.61       -2.9        
C           75.46       26.23       -1.71       
C           74.42       25.73       -1.0        
C           73.71       24.71       -1.55       
C           74.2        24.02       -2.68       
C           75.33       24.46       -3.33       
C           72.36       24.17       -0.99       
C           72.19       23.03       -1.97       
C           73.28       22.92       -2.87       
C           77.33       26.29       -3.37       
C           77.38       27.49       -2.37       
C           76.35       27.31       -1.31       
C           71.22       22.15       -1.99       
C           71.25       21.08       -2.98       
C           72.45       20.92       -3.69       
C           73.48       21.84       -3.67       
C           78.3        28.57       -2.26       
C           78.21       29.39       -1.09       
C           77.3        29.09       -0.03       
C           76.33       28.05       -0.15       
C           71.16       25.14       -1.0        
C           72.55       23.5        0.41        
C           77.18       26.87       -4.78       
C           78.51       25.34       -3.13       
H           75.66       23.91       -4.17       
H           74.01       26.31       -0.23       
H           79.15       28.71       -2.97       
H           75.47       27.88       0.58        
H           70.36       22.21       -1.28       
H           74.32       21.79       -4.31       
H           71.32       26.07       -0.45       
H           70.31       24.62       -0.55       
H           70.89625    25.44652    -2.01222    
H           73.41       22.93       0.2         
H           71.83       22.72       0.69        
H           72.74126    24.17294    1.24586     
H           79.48       25.91       -2.9        
H           78.26       24.64       -2.28       
H           78.82633    24.75654    -3.99464    
H           77.03       26.12       -5.53       
H           78.08       27.43       -5.08       
H           76.29585    27.50256    -4.85907    
H           69.39       19.97       -2.62       
H           79.73       30.96       -1.37       
S           72.42       19.37       -4.52       
C           70.25       20.12       -3.26       
C           70.74       19.13       -3.96       
C           80.27       34.99       2.01        
C           80.11       33.9        2.94        
C           79.85       34.72       0.74        
N           80.32       33.84       4.23        
N           79.5        31.81       3.53        
O           79.92       32.58       4.63        
H           79.12       33.38       -0.7        
H           79.91       35.51       -0.01       
C           79.3        33.49       0.3         
C           79.55       32.59       2.46        
C           79.2        32.35       1.09        
C           85.09       50.69       2.42        
C           83.97       50.22       1.81        
S           85.76       49.58       3.59        
C           81.93       44.66       2.29        
C           82.86       45.03       3.28        
C           83.45       44.06       4.06        
C           83.03       42.75       3.97        
C           82.18       42.4        2.87        
C           81.54       43.36       2.13        
C           83.35       41.55       4.79        
C           82.5        40.47       4.07        
C           82.03       40.97       2.86        
C           81.43       45.88       1.52        
C           82.31       46.92       2.16        
C           83.15       46.46       3.13        
C           82.58       39.09       4.26        
C           81.83       38.29       3.43        
C           81.14       38.81       2.35        
C           81.3        40.14       1.98        
C           82.56       48.16       1.63        
C           83.63       48.89       2.1         
C           84.48       48.38       3.1         
C           84.22       47.11       3.6         
C           82.88       41.67       6.29        
C           84.84       41.21       4.76        
C           79.96       46.24       1.74        
C           81.86       45.85       -0.02       
H           80.69       43.06       1.47        
H           84.12       44.34       4.87        
H           81.8        48.64       1.03        
H           84.83       46.68       4.35        
H           83.07       38.57       5.11        
H           80.94       40.46       1.02        
H           83.09       42.61       6.81        
H           83.36       40.79       6.81        
H           81.80889    41.48784    6.37744     
H           85.21       41.13       3.75        
H           84.97       40.2        5.14        
H           85.56876    41.87987    5.21639     
H           81.79       46.87       -0.41       
H           82.98       45.75       -0.15       
H           81.35965    45.06776    -0.59083    
H           79.6        46.64       0.73        
H           79.48       45.32       1.84        
H           79.81108    46.83568    2.64061     
H           82.02       36.16       4.15        
H           83.42       50.71       1.05        
S           80.49       37.68       1.31        
C           81.53       36.83       3.48        
C           80.84       36.34       2.37        
C           87.05       54.55       1.73        
C           86.05       54.12       0.84        
C           87.35       53.72       2.73        
N           85.5        54.73       -0.26       
N           84.64       52.69       0.0         
O           84.71       53.85       -0.79       
H           86.94       51.94       3.91        
H           88.11       54.0        3.47        
C           86.68       52.48       3.0         
C           85.49       52.85       0.98        
C           85.72       52.01       2.16        
C           94.66       69.03       -1.65       
C           93.87       68.36       -2.54       
S           94.71       68.27       -0.06       
C           91.19       63.02       -1.2        
C           91.76       63.71       -0.08       
C           91.54       63.24       1.2         
C           90.94       61.99       1.38        
C           90.51       61.18       0.25        
C           90.69       61.68       -1.02       
C           90.82       61.13       2.64        
C           90.05       59.86       2.07        
C           89.87       59.94       0.65        
C           91.22       63.93       -2.42       
C           92.11       65.12       -1.92       
C           92.44       64.97       -0.53       
C           89.49       58.82       2.69        
C           88.87       57.78       1.99        
C           88.92       57.78       0.62        
C           89.44       58.91       -0.06       
C           92.47       66.27       -2.66       
C           93.27       67.17       -1.95       
C           93.66       67.0        -0.62       
C           93.22       65.89       0.13        
C           89.99       61.95       3.67        
C           92.21       60.79       3.26        
C           89.74       64.44       -2.69       
C           91.8        63.19       -3.63       
H           90.42       61.1        -1.88       
H           91.78       63.87       2.06        
H           92.13       66.45       -3.7        
H           93.51       65.75       1.17        
H           89.44       58.9        3.76        
H           89.47       58.91       -1.15       
H           90.2        61.67       4.7         
H           90.37       63.0        3.63        
H           88.91304    62.02228    3.51821     
H           92.91       61.64       3.03        
H           92.2        60.5        4.31        
H           92.7251     60.00304    2.70913     
H           91.24       62.28       -3.93       
H           91.76       63.93       -4.43       
H           92.8375     62.89254    -3.47764    
H           89.79       65.12       -3.52       
H           89.1        63.63       -2.88       
H           89.33884    64.89043    -1.7821     
H           88.11       56.36       3.52        
H           93.88       68.56       -3.6        
S           88.2        56.34       -0.02       
C           88.29       56.57       2.5         
C           87.76       55.79       1.56        
C           97.55       72.21       -2.8        
C           96.22       72.19       -3.32       
C           97.75       71.3        -1.82       
N           95.68       72.88       -4.27       
N           94.19       71.3        -3.71       
O           94.45       72.38       -4.48       
H           97.16       69.61       -0.83       
H           98.76       71.15       -1.29       
C           96.79       70.3        -1.51       
C           95.25       71.2        -2.88       
C           95.54       70.17       -2.02       
C           109.53      82.74       -7.17       
C           109.77      81.47       -6.72       
S           107.8       82.95       -7.4        
C           105.41      77.53       -5.2        
C           104.96      78.69       -5.85       
C           103.64      79.0        -6.02       
C           102.74      78.1        -5.56       
C           103.15      76.89       -5.01       
C           104.5       76.51       -4.87       
C           101.22      78.1        -5.73       
C           100.85      76.75       -5.13       
C           102.02      76.14       -4.61       
C           106.89      77.61       -4.96       
C           107.24      78.79       -5.89       
C           106.12      79.51       -6.24       
C           99.61       76.22       -4.78       
C           99.6        74.99       -4.17       
C           100.69      74.3        -3.72       
C           101.96      74.97       -3.8        
C           108.5       79.37       -6.0        
C           108.62      80.67       -6.48       
C           107.45      81.36       -6.82       
C           106.18      80.77       -6.85       
C           100.8       78.34       -7.21       
C           100.63      79.21       -4.82       
C           107.54      76.32       -5.59       
C           107.37      77.77       -3.51       
H           104.73      75.56       -4.48       
H           103.29      79.97       -6.47       
H           109.41      78.86       -5.77       
H           105.25      81.27       -7.18       
H           98.68       76.79       -4.86       
H           102.83      74.46       -3.38       
H           101.23      79.24       -7.53       
H           101.37      77.54       -7.62       
H           99.76559    78.08668    -7.44221    
H           101.03      80.16       -5.11       
H           99.57       79.25       -5.07       
H           100.72005   79.09917    -3.73939    
H           108.33      77.34       -3.36       
H           107.41      78.84       -3.24       
H           106.78011   77.28421    -2.73274    
H           107.08      75.41       -5.16       
H           108.58      76.36       -5.42       
H           107.30074   76.21849    -6.64856    
H           97.45       74.58       -4.46       
H           110.8       81.13       -6.43       
S           100.22      72.8        -2.84       
C           98.38       74.21       -4.06       
C           98.58       73.09       -3.29       
C           111.99      86.32       -7.55       
C           112.4       85.22       -6.66       
C           110.86      86.06       -8.29       
N           113.4       85.18       -5.82       
N           112.16      83.26       -5.71       
O           113.21      84.01       -5.19       
H           109.08      84.85       -8.73       
H           110.41      86.85       -8.8        
C           110.03      84.9        -8.15       
C           111.55      84.05       -6.58       
C           110.35      83.91       -7.31       
C           122.01      96.0        -16.02      
C           122.53      94.9        -15.43      
S           120.48      96.45       -15.39      
C           119.12      91.65       -11.57      
C           118.54      92.81       -12.17      
C           117.22      93.07       -12.0       
C           116.44      92.26       -11.17      
C           117.01      91.1        -10.61      
C           118.36      90.8        -10.89      
C           114.95      92.46       -10.79      
C           114.72      91.05       -10.23      
C           115.95      90.41       -9.91       
C           120.63      91.56       -11.94      
C           120.7       92.69       -12.99      
C           119.51      93.41       -13.01      
C           113.59      90.52       -9.7        
C           113.56      89.35       -8.94       
C           114.79      88.68       -8.76       
C           116.0       89.28       -9.13       
C           121.74      93.09       -13.76      
C           121.57      94.19       -14.58      
C           120.42      94.96       -14.52      
C           119.31      94.56       -13.71      
C           114.08      92.91       -11.97      
C           114.83      93.62       -9.71       
C           121.04      90.24       -12.59      
C           121.55      91.98       -10.83      
H           118.8       89.85       -10.59      
H           116.82      93.97       -12.37      
H           122.68      92.62       -13.71      
H           118.41      95.19       -13.63      
H           112.67      91.03       -9.9        
H           116.96      88.85       -8.93       
H           114.32      93.95       -12.16      
H           113.1       92.86       -11.69      
H           114.17365   92.3481     -12.8993    
H           114.8       94.6        -10.14      
H           113.88      93.42       -9.2        
H           115.58933   93.57702    -8.92918    
H           122.56      91.95       -11.08      
H           121.43      93.0        -10.64      
H           121.41337   91.53414    -9.84479    
H           122.11      90.22       -12.55      
H           120.67      89.37       -11.95      
H           120.70593   90.07296    -13.61401   
H           111.5       88.97       -8.57       
H           123.53      94.45       -15.59      
S           114.56      87.3        -7.71       
C           112.51      88.6        -8.42       
C           112.79      87.42       -7.82       
C           123.06      98.42       -19.59      
C           123.4       97.05       -19.41      
C           122.41      98.91       -18.52      
N           123.93      96.29       -20.34      
N           123.5       94.96       -18.58      
O           124.07      95.06       -19.83      
H           121.65      98.67       -16.59      
H           121.95      99.87       -18.56      
C           122.11      98.08       -17.37      
C           123.15      96.22       -18.25      
C           122.49      96.79       -17.14      
C           122.7       108.08      -33.17      
C           122.91      108.54      -31.91      
S           122.47      106.33      -33.13      
C           122.58      104.97      -26.96      
C           122.61      104.27      -28.16      
C           122.48      102.92      -28.18      
C           122.44      102.16      -27.01      
C           122.51      102.87      -25.79      
C           122.57      104.28      -25.73      
C           122.43      100.65      -26.87      
C           122.61      100.6       -25.38      
C           122.56      101.85      -24.73      
C           122.4       106.45      -27.18      
C           122.71      106.56      -28.68      
C           122.63      105.29      -29.23      
C           122.98      99.5        -24.59      
C           123.02      99.67       -23.18      
C           122.8       100.91      -22.62      
C           122.7       102.06      -23.37      
C           122.9       107.68      -29.47      
C           122.76      107.5       -30.85      
C           122.54      106.21      -31.39      
C           122.59      105.09      -30.59      
C           123.56      100.06      -27.76      
C           121.01      100.02      -27.28      
C           123.42      107.32      -26.36      
C           121.01      107.01      -27.04      
H           122.7       104.85      -24.81      
H           122.55      102.37      -29.09      
H           123.07      108.69      -29.1       
H           122.59      104.11      -30.97      
H           123.02      98.48       -24.96      
H           122.67      103.03      -22.86      
H           123.59      100.45      -28.76      
H           124.47      100.62      -27.42      
H           123.63298   98.97267    -27.78189   
H           121.02      99.51       -28.27      
H           120.73      99.24       -26.6       
H           120.24005   100.78995   -27.32945   
H           121.0       108.12      -26.89      
H           120.49      106.75      -28.01      
H           120.4292    106.61796   -26.20509   
H           123.18      108.37      -26.58      
H           123.12      107.24      -25.27      
H           124.46714   107.09266   -26.55978   
H           123.43      97.63       -22.42      
H           123.11      109.57      -31.68      
S           122.85      100.87      -20.88      
C           123.24      98.68       -22.12      
C           123.15      99.15       -20.82      
C           122.67      109.93      -37.22      
C           123.37      110.56      -36.13      
C           121.97      108.86      -36.8       
N           124.08      111.64      -36.09      
N           124.15      110.77      -34.01      
O           124.42      111.81      -34.82      
H           121.32      107.55      -35.44      
H           121.27      108.37      -37.44      
C           122.05      108.31      -35.53      
C           123.4       109.99      -34.77      
C           122.83      108.72      -34.44      
C           124.49      112.26      -53.38      
C           124.08      111.1       -52.81      
S           124.49      113.55      -52.2       
C           122.75      110.44      -46.98      
C           123.03      111.76      -47.36      
C           123.02      112.89      -46.43      
C           122.93      112.58      -45.11      
C           122.62      111.28      -44.71      
C           122.55      110.21      -45.61      
C           123.15      113.48      -43.87      
C           122.87      112.52      -42.74      
C           122.51      111.25      -43.28      
C           122.68      109.42      -48.17      
C           123.04      110.43      -49.27      
C           123.32      111.73      -48.81      
C           123.06      112.65      -41.35      
C           122.86      111.61      -40.54      
C           122.39      110.42      -41.08      
C           122.17      110.19      -42.43      
C           123.37      110.18      -50.56      
C           123.83      111.23      -51.42      
C           123.96      112.51      -50.96      
C           123.76      112.77      -49.64      
C           122.24      114.71      -44.09      
C           124.62      113.85      -43.9       
C           121.29      108.86      -48.36      
C           123.72      108.28      -48.15      
H           122.37      109.22      -45.28      
H           123.37      113.86      -46.79      
H           123.3       109.14      -50.98      
H           124.0       113.78      -49.33      
H           123.51      113.5       -40.87      
H           121.82      109.25      -42.84      
H           122.65      115.47      -44.73      
H           121.37      114.2       -44.56      
H           121.8801    115.16164   -43.16556   
H           124.88      114.64      -44.59      
H           124.85      114.13      -42.87      
H           125.26656   112.99037   -44.07633   
H           123.34      107.35      -48.43      
H           124.48      108.56      -48.85      
H           124.26533   108.13649   -47.2172    
H           121.13      108.27      -47.5       
H           121.27      108.19      -49.24      
H           120.51941   109.63059   -48.38202   
H           123.29      112.36      -38.45      
H           123.96      110.21      -53.41      
S           121.88      109.36      -39.82      
C           122.98      111.57      -39.08      
C           122.56      110.42      -38.61      
C           124.31      113.9       -57.65      
C           123.65      112.7       -57.21      
C           124.98      114.45      -56.54      
N           122.84      111.91      -57.87      
N           122.97      111.07      -55.82      
O           122.55      110.91      -57.08      
H           125.83      114.32      -54.58      
H           125.52      115.45      -56.53      
C           125.2       113.81      -55.25      
C           123.77      112.18      -55.84      
C           124.52      112.7       -54.8       
C           117.25      126.49      -64.31      
C           118.57      126.52      -63.89      
S           116.85      124.86      -64.9       
C           121.75      121.49      -63.01      
C           120.52      121.28      -63.62      
C           120.04      119.99      -63.74      
C           120.84      118.93      -63.23      
C           122.03      119.15      -62.56      
C           122.56      120.43      -62.54      
C           120.18      117.56      -62.77      
C           121.41      116.98      -62.06      
C           122.49      117.93      -61.94      
C           121.97      122.97      -62.66      
C           120.86      123.57      -63.48      
C           119.95      122.57      -63.94      
C           121.55      115.86      -61.41      
C           122.62      115.64      -60.53      
C           123.73      116.55      -60.51      
C           123.66      117.75      -61.16      
C           120.5       124.91      -63.41      
C           119.22      125.23      -63.87      
C           118.36      124.2       -64.39      
C           118.67      122.88      -64.41      
C           119.53      116.82      -63.92      
C           119.09      117.79      -61.66      
C           123.26      123.63      -63.27      
C           121.89      123.29      -61.14      
H           123.45      120.63      -61.99      
H           119.04      119.85      -64.14      
H           121.1       125.67      -62.97      
H           118.07      122.1       -64.88      
H           120.79      115.07      -61.37      
H           124.47      118.45      -61.03      
H           118.42      116.62      -63.56      
H           119.41      117.51      -64.74      
H           120.02742   115.91754   -64.2753    
H           118.18      118.16      -62.17      
H           118.77      116.96      -61.12      
H           119.37223   118.5238    -60.90503   
H           122.9       123.18      -60.71      
H           121.64      124.33      -60.9       
H           121.32957   122.52642   -60.60059   
H           124.07      123.2       -62.71      
H           123.24      124.73      -63.03      
H           123.26727   123.50644   -64.35295   
H           121.98      113.88      -59.48      
H           118.93      127.41      -63.39      
S           124.94      115.95      -59.43      
C           122.78      114.54      -59.66      
C           123.91      114.63      -58.89      
C           114.22      129.78      -63.61      
C           114.38      129.15      -64.9       
C           115.09      129.33      -62.67      
N           113.81      129.51      -66.02      
N           115.22      127.67      -66.38      
O           114.25      128.49      -66.86      
H           116.61      128.03      -62.08      
H           115.05      129.69      -61.61      
C           116.0       128.19      -62.93      
C           115.34      128.02      -65.12      
C           116.23      127.53      -64.1       
C           103.44      141.74      -61.12      
C           103.82      140.95      -60.11      
S           104.78      142.05      -62.24      
C           108.5       137.2       -60.58      
C           108.46      138.17      -61.62      
C           109.45      138.22      -62.51      
C           110.32      137.12      -62.73      
C           110.22      136.1       -61.83      
C           109.5       136.24      -60.68      
C           111.08      136.76      -64.0       
C           111.46      135.26      -63.63      
C           111.03      134.98      -62.29      
C           107.21      137.28      -59.72      
C           106.59      138.51      -60.35      
C           107.35      139.06      -61.41      
C           112.15      134.31      -64.42      
C           112.44      133.05      -63.79      
C           112.0       132.82      -62.5       
C           111.3       133.79      -61.75      
C           105.46      139.12      -59.84      
C           104.99      140.18      -60.5       
C           105.68      140.73      -61.59      
C           106.87      140.24      -62.07      
C           112.39      137.63      -64.06      
C           110.3       136.84      -65.37      
C           107.57      137.78      -58.27      
C           106.27      136.07      -59.93      
H           109.52      135.4       -59.98      
H           109.38      139.0       -63.27      
H           104.92      138.7       -58.98      
H           107.38      140.7       -62.93      
H           112.38      134.51      -65.47      
H           111.0       133.51      -60.74      
H           112.14      138.75      -64.16      
H           113.02      137.49      -64.92      
H           113.02557   137.63      -63.17448   
H           109.45      136.15      -65.35      
H           110.99      136.62      -66.22      
H           109.96693   137.84645   -65.62342   
H           105.31      136.41      -60.07      
H           106.56      135.57      -60.92      
H           106.19066   135.38475   -59.08606   
H           108.19      136.99      -57.78      
H           106.7       137.82      -57.62      
H           108.18427   138.67998   -58.24143   
H           113.54      131.96      -65.32      
H           103.17      140.8       -59.2       
S           112.51      131.21      -61.96      
C           113.17      131.92      -64.34      
C           113.43      130.98      -63.42      
C           99.48       143.27      -62.36      
C           99.65       142.42      -61.22      
C           100.64      143.37      -63.04      
N           98.74       142.03      -60.37      
N           100.8       141.26      -59.65      
O           99.44       141.31      -59.34      
H           102.85      143.41      -63.07      
H           100.66      144.0       -63.89      
C           101.99      143.01      -62.57      
C           100.93      141.88      -60.81      
C           102.15      142.24      -61.49      
C           85.83       148.37      -70.47      
C           87.06       148.37      -70.99      
S           85.75       147.82      -68.8       
C           91.91       146.47      -67.86      
C           90.72       146.06      -67.22      
C           90.66       145.45      -65.98      
C           91.84       145.2       -65.37      
C           93.08       145.67      -65.93      
C           93.06       146.41      -67.15      
C           92.05       144.49      -64.04      
C           93.62       144.49      -63.95      
C           94.17       145.23      -65.07      
C           91.68       147.09      -69.18      
C           90.12       147.06      -69.25      
C           89.58       146.53      -68.06      
C           94.5        144.02      -62.99      
C           95.9        144.01      -63.22      
C           96.4        144.66      -64.36      
C           95.57       145.31      -65.25      
C           89.36       147.55      -70.3       
C           88.02       147.76      -70.07      
C           87.44       147.28      -68.83      
C           88.2        146.61      -67.83      
C           91.44       143.02      -64.22      
C           91.34       145.14      -62.88      
C           92.47       146.32      -70.3       
C           92.09       148.58      -69.19      
H           93.97       146.71      -67.65      
H           89.67       145.15      -65.52      
H           89.8        147.93      -71.23      
H           87.76       146.28      -66.9       
H           94.18       143.49      -62.09      
H           96.0        145.87      -66.12      
H           91.59       142.39      -63.32      
H           90.33       143.09      -64.32      
H           91.97596    142.4767    -64.99825   
H           90.35       145.42      -63.15      
H           91.2        144.53      -62.02      
H           91.83646    146.05707   -62.56282   
H           93.13       148.84      -69.36      
H           91.6        149.03      -69.97      
H           91.68336    149.15206   -68.35604   
H           93.49       146.69      -70.34      
H           91.96       146.65      -71.23      
H           92.40351    145.23406   -70.23351   
H           96.78       142.98      -61.46      
H           87.34       148.58      -72.0       
S           98.11       144.67      -64.34      
C           96.99       143.51      -62.38      
C           98.22       143.67      -62.92      
C           82.17       149.81      -72.59      
C           83.41       149.57      -73.26      
C           82.29       149.6       -71.27      
N           83.64       149.8       -74.52      
N           85.54       149.03      -73.52      
O           85.0        149.5       -74.66      
H           83.49       149.15      -69.51      
H           81.44       149.93      -70.63      
C           83.52       149.28      -70.62      
C           84.62       149.12      -72.64      
C           84.66       148.78      -71.24      
H           70.07       18.46       -4.46       
H           81.26       150.18      -73.09      
