612

C           77.44       45.63       3.21        
C           76.23       45.29       3.82        
S           77.81       44.39       2.02        
C           73.45       39.9        3.17        
C           74.65       40.02       2.42        
C           75.16       39.09       1.51        
C           74.4        37.91       1.37        
C           73.25       37.71       2.11        
C           72.76       38.71       3.0         
C           74.62       36.67       0.52        
C           73.42       35.79       0.93        
C           72.57       36.44       1.83        
C           73.12       41.23       3.85        
C           74.36       42.04       3.62        
C           75.13       41.38       2.65        
C           73.09       34.5        0.53        
C           71.96       33.88       0.96        
C           71.13       34.62       1.91        
C           71.38       35.91       2.37        
C           74.65       43.3        4.06        
C           75.79       43.97       3.6         
C           76.52       43.33       2.59        
C           76.33       42.01       2.17        
C           75.93       36.09       0.9         
C           74.51       36.89       -1.06       
C           72.96       40.99       5.38        
C           71.95       41.94       3.16        
H           71.84       38.61       3.56        
H           76.12       39.23       0.94        
H           74.04       43.78       4.8         
H           76.94       41.59       1.37        
H           73.62       34.07       -0.34       
H           70.8        36.48       3.07        
H           76.75       36.77       0.61        
H           76.2        35.18       0.42        
H           76.18847    36.00384    1.9554      
H           73.5        37.2        -1.34       
H           74.73       36.02       -1.63       
H           75.14912    37.69066    -1.43224    
H           71.88       42.93       3.6         
H           72.19       42.13       2.11        
H           70.99751    41.43869    3.33188     
H           72.27       40.16       5.46        
H           72.5        41.84       5.92        
H           73.88309    40.69177    5.87705     
H           71.83       32.06       -0.16       
H           75.67       45.93       4.48        
S           69.73       33.59       2.34        
C           71.41       32.65       0.64        
C           70.29       32.27       1.27        
C           79.68       49.47       3.36        
C           78.32       49.33       3.75        
C           80.2        48.29       2.83        
N           77.52       50.31       4.1         
N           76.4        48.29       4.22        
O           76.34       49.66       4.4         
H           80.05       46.14       2.46        
H           81.2        48.28       2.48        
C           79.48       47.02       2.75        
C           77.64       48.1        3.69        
C           78.2        46.88       3.21        
C           86.56       64.32       0.21        
C           85.26       64.04       0.15        
S           87.45       63.09       1.03        
C           82.71       58.89       1.9         
C           84.16       58.91       1.99        
C           84.92       57.78       2.35        
C           84.27       56.58       2.51        
C           82.88       56.53       2.33        
C           82.08       57.66       2.09        
C           84.85       55.28       2.93        
C           83.64       54.37       2.95        
C           82.49       55.11       2.52        
C           82.18       60.34       1.92        
C           83.51       61.0        1.36        
C           84.63       60.26       1.77        
C           83.43       53.04       3.22        
C           82.19       52.38       3.12        
C           81.07       53.18       2.85        
C           81.22       54.55       2.48        
C           83.63       62.24       0.89        
C           84.89       62.77       0.73        
C           86.04       62.1        1.17        
C           85.92       60.83       1.71        
C           85.35       55.44       4.35        
C           85.92       54.6        2.05        
C           81.81       60.62       3.42        
C           81.0        60.7        0.93        
H           80.97       57.61       2.04        
H           85.95       57.93       2.45        
H           82.77       62.66       0.33        
H           86.83       60.24       1.97        
H           84.3        52.45       3.4         
H           80.36       55.17       2.21        
H           86.24       56.1        4.32        
H           85.7        54.46       4.67        
H           84.62519    55.8721     5.03996     
H           85.49       54.51       1.05        
H           86.13       53.56       2.36        
H           86.85818    55.14355    1.93831     
H           80.53       61.64       1.06        
H           81.37       60.58       -0.12       
H           80.15       60.03008    1.05966     
H           80.75       60.33       3.66        
H           82.41       59.97       4.01        
H           82.13211    61.58633    3.808       
H           82.39       50.2        3.65        
H           84.47       64.7        -0.29       
S           79.59       52.19       2.82        
C           81.74       50.96       3.38        
C           80.38       50.73       3.32        
C           88.46       68.3        -0.49       
C           89.21       67.12       -0.26       
C           87.1        68.02       -0.62       
N           90.49       66.97       -0.28       
N           89.6        65.01       0.14        
O           90.72       65.69       -0.01       
H           85.35       66.68       -0.47       
H           86.4        68.82       -0.9        
C           86.45       66.77       -0.35       
C           88.61       65.84       -0.15       
C           87.16       65.65       -0.06       
C           92.36       84.39       -2.76       
C           91.06       83.96       -2.49       
S           93.5        83.08       -2.44       
C           89.66       78.07       -1.49       
C           91.06       78.35       -1.59       
C           92.01       77.33       -1.41       
C           91.52       76.04       -1.33       
C           90.13       75.73       -1.34       
C           89.21       76.78       -1.25       
C           92.39       74.83       -1.13       
C           91.33       73.75       -1.24       
C           89.99       74.27       -1.25       
C           88.81       79.31       -1.57       
C           89.89       80.41       -1.79       
C           91.17       79.78       -1.71       
C           91.47       72.41       -1.15       
C           90.33       71.58       -1.01       
C           89.06       72.12       -1.08       
C           88.91       73.45       -1.18       
C           89.78       81.77       -1.98       
C           90.95       82.52       -2.18       
C           92.24       81.93       -2.16       
C           92.34       80.58       -1.82       
C           93.13       74.95       0.31        
C           93.3        74.72       -2.38       
C           88.16       79.4        -0.17       
C           87.81       79.31       -2.74       
H           88.16       76.61       -1.15       
H           93.1        77.52       -1.38       
H           88.82       82.19       -2.05       
H           93.28       80.17       -1.84       
H           92.42       72.04       -1.01       
H           87.93       73.88       -1.25       
H           93.63       75.89       0.44        
H           92.29       74.92       1.03        
H           93.87594    74.17617    0.49126     
H           94.12       75.45       -2.47       
H           93.85       73.78       -2.35       
H           92.75238    74.77617    -3.32078    
H           86.94       78.61       -2.61       
H           87.43       80.36       -2.75       
H           88.2802     79.13713    -3.70806    
H           87.32       78.6        -0.03       
H           88.99       79.12       0.44        
H           87.81693    80.37081    0.18767     
H           91.16       69.64       -0.62       
H           90.18       84.61       -2.65       
S           87.78       70.95       -0.89       
C           90.27       70.23       -0.73       
C           88.99       69.67       -0.66       
C           94.17       88.41       -2.9        
C           92.77       88.25       -2.5        
C           94.75       87.27       -3.27       
N           91.83       89.13       -2.23       
N           91.0        87.06       -1.9        
O           90.73       88.43       -1.93       
H           94.78       85.1        -3.62       
H           95.76       87.34       -3.7        
C           94.2        85.98       -3.23       
C           92.23       86.92       -2.47       
C           92.95       85.73       -2.78       
C           103.12      101.58      -7.98       
C           103.55      100.31      -7.93       
S           101.37      101.55      -7.88       
C           100.26      95.61       -5.83       
C           99.48       96.77       -6.27       
C           98.07       96.65       -6.35       
C           97.51       95.55       -5.81       
C           98.25       94.44       -5.38       
C           99.68       94.4        -5.44       
C           96.04       95.14       -6.01       
C           95.93       93.85       -5.18       
C           97.31       93.45       -4.92       
C           101.72      95.81       -6.31       
C           101.72      97.27       -6.67       
C           100.36      97.83       -6.72       
C           94.87       93.04       -4.87       
C           95.12       91.8        -4.3        
C           96.47       91.39       -4.04       
C           97.57       92.22       -4.39       
C           102.78      97.95       -7.13       
C           102.63      99.29       -7.53       
C           101.36      99.85       -7.39       
C           100.16      99.15       -7.05       
C           95.79       94.91       -7.52       
C           95.07       96.21       -5.54       
C           101.85      94.87       -7.55       
C           102.83      95.55       -5.24       
H           100.26      93.64       -4.99       
H           97.45       97.5        -6.68       
H           103.81      97.59       -7.07       
H           99.21       99.63       -6.9        
H           93.8        93.4        -5.05       
H           98.61       91.93       -4.31       
H           95.82       95.92       -8.02       
H           96.66       94.35       -7.95       
H           94.89337    94.34333    -7.77106    
H           94.99       97.09       -6.16       
H           94.11       95.83       -5.2        
H           95.314      96.69082    -4.5927     
H           103.0       94.48       -5.16       
H           103.55      96.1        -5.75       
H           102.62317   95.93513    -4.2415     
H           101.78      93.83       -7.24       
H           102.88      95.03       -7.89       
H           101.22857   95.17381    -8.39239    
H           93.22       91.08       -3.67       
H           104.64      100.1       -8.02       
S           96.57       89.75       -3.4        
C           94.23       90.81       -3.74       
C           94.81       89.66       -3.3        
C           105.26      105.14      -9.33       
C           104.11      105.21      -8.47       
C           105.72      103.88      -9.56       
N           103.43      106.31      -8.14       
N           102.5       104.44      -7.22       
O           102.56      105.8       -7.25       
H           105.41      101.71      -9.45       
H           106.62      103.75      -10.23      
C           105.03      102.69      -9.17       
C           103.44      104.06      -8.01       
C           103.85      102.72      -8.41       
C           110.43      116.21      -20.39      
C           111.09      115.06      -20.07      
S           109.11      116.65      -19.2       
C           109.46      111.42      -15.61      
C           108.62      112.58      -15.69      
C           107.59      112.91      -14.83      
C           107.38      111.91      -13.88      
C           108.11      110.68      -13.78      
C           109.28      110.49      -14.65      
C           106.25      111.81      -12.8       
C           106.53      110.49      -12.07      
C           107.59      109.85      -12.72      
C           110.55      111.38      -16.66      
C           110.19      112.64      -17.48      
C           109.13      113.35      -16.84      
C           105.85      109.9       -11.06      
C           106.14      108.56      -10.71      
C           107.17      107.86      -11.41      
C           107.93      108.52      -12.36      
C           110.89      113.15      -18.52      
C           110.49      114.39      -18.93      
C           109.39      115.1       -18.35      
C           108.76      114.66      -17.23      
C           104.83      111.76      -13.32      
C           106.54      112.99      -11.83      
C           110.5       110.11      -17.57      
C           111.96      111.62      -16.07      
H           109.76      109.55      -14.71      
H           107.02      113.8       -14.96      
H           111.85      112.78      -18.76      
H           107.94      115.23      -16.77      
H           105.05      110.37      -10.54      
H           108.77      108.06      -12.87      
H           104.69      112.67      -13.89      
H           104.23      111.64      -12.41      
H           104.60891   110.86874   -13.90726   
H           106.61      113.92      -12.35      
H           105.65      113.03      -11.18      
H           107.4186    112.8593    -11.19828   
H           112.67      111.75      -16.94      
H           111.97      112.5       -15.42      
H           112.36917   110.75934   -15.5409    
H           111.5       109.86      -17.92      
H           110.29      109.19      -16.98      
H           109.776     110.13263   -18.3845    
H           104.51      108.02      -9.33       
H           111.83      114.65      -20.75      
S           107.26      106.17      -10.97      
C           105.41      107.67      -9.9        
C           105.83      106.35      -10.02      
C           111.58      119.67      -22.82      
C           112.34      118.48      -22.92      
C           110.38      119.56      -22.15      
N           113.5       118.31      -23.54      
N           112.97      116.5       -22.3       
O           113.94      117.09      -23.05      
H           109.1       118.4       -20.91      
H           109.7       120.38      -22.02      
C           109.97      118.34      -21.54      
C           111.94      117.3       -22.21      
C           110.77      117.26      -21.37      
C           115.93      133.48      -31.1       
C           114.65      133.37      -30.66      
S           116.99      132.25      -30.51      
C           113.02      128.43      -27.43      
C           114.42      128.74      -27.4       
C           115.37      127.92      -26.66      
C           114.81      126.82      -25.94      
C           113.43      126.51      -26.06      
C           112.55      127.4       -26.73      
C           115.41      125.99      -24.81      
C           114.4       124.87      -24.74      
C           113.16      125.29      -25.31      
C           112.28      129.67      -27.9       
C           113.4       130.56      -28.38      
C           114.63      129.92      -28.23      
C           114.51      123.72      -23.96      
C           113.41      122.84      -23.9       
C           112.19      123.26      -24.44      
C           112.08      124.44      -25.15      
C           113.42      131.79      -29.06      
C           114.55      132.19      -29.77      
C           115.74      131.51      -29.61      
C           115.81      130.42      -28.74      
C           115.69      126.93      -23.63      
C           116.73      125.44      -25.33      
C           111.48      130.15      -26.66      
C           111.3       129.23      -29.02      
H           111.5       127.08      -26.73      
H           116.49      128.03      -26.85      
H           112.54      132.36      -29.11      
H           116.73      130.05      -28.48      
H           115.46      123.63      -23.35      
H           111.17      124.86      -25.59      
H           116.78      127.22      -23.76      
H           115.14      127.91      -23.72      
H           115.38969   126.50001   -22.67448   
H           117.36      126.17      -25.79      
H           117.29      124.97      -24.45      
H           116.54412   124.63215   -26.03776   
H           110.38      128.78      -28.6       
H           110.91      130.14      -29.44      
H           111.7773    128.73194   -29.86393   
H           111.02      129.33      -26.14      
H           112.15      130.6       -25.94      
H           110.84951   131.00467   -26.90519   
H           114.15      121.06      -22.84      
H           113.87      134.17      -30.82      
S           110.98      122.08      -24.08      
C           113.32      121.53      -23.27      
C           112.08      120.97      -23.23      
C           117.48      136.45      -34.01      
C           116.73      136.86      -32.84      
C           117.65      135.13      -34.05      
N           116.18      138.08      -32.5       
N           115.4       136.59      -31.02      
O           115.29      137.84      -31.44      
H           117.43      133.22      -33.17      
H           118.18      134.7       -34.89      
C           117.22      134.26      -32.94      
C           116.12      135.92      -31.87      
C           116.52      134.54      -31.85      
C           119.31      143.9       -48.52      
C           120.18      143.0       -48.05      
S           118.57      144.76      -47.2       
C           120.12      140.78      -42.45      
C           119.49      142.04      -42.57      
C           118.76      142.65      -41.53      
C           118.61      141.9       -40.43      
C           119.22      140.63      -40.23      
C           120.03      140.07      -41.22      
C           117.8       142.23      -39.17      
C           117.98      140.94      -38.31      
C           118.9       140.06      -38.94      
C           120.71      140.31      -43.79      
C           120.52      141.57      -44.57      
C           119.74      142.55      -43.92      
C           117.43      140.59      -37.07      
C           117.77      139.34      -36.52      
C           118.72      138.47      -37.19      
C           119.36      138.84      -38.32      
C           120.84      141.77      -45.94      
C           120.19      142.79      -46.69      
C           119.3       143.69      -46.05      
C           119.29      143.7       -44.6       
C           116.26      142.44      -39.47      
C           118.42      143.48      -38.42      
C           119.86      139.19      -44.46      
C           122.27      139.88      -43.86      
H           120.31      138.94      -41.24      
H           118.45      143.7       -41.56      
H           121.5       141.07      -46.52      
H           118.65      144.36      -44.02      
H           116.68      141.27      -36.6       
H           120.14      138.07      -38.68      
H           115.72      142.92      -38.65      
H           116.13      143.05      -40.36      
H           115.75369   141.51879   -39.75832   
H           118.3       144.34      -39.08      
H           117.75      143.68      -37.6       
H           119.4518    143.36455   -38.08809   
H           122.58      139.83      -44.88      
H           122.94      140.6       -43.45      
H           122.53201   138.94526   -43.36431   
H           120.0       138.19      -44.27      
H           119.97      139.2       -45.55      
H           118.7985    139.3306    -44.25614   
H           116.64      139.09      -34.61      
H           120.69      142.33      -48.7       
S           118.71      136.89      -36.43      
C           117.39      138.65      -35.28      
C           117.83      137.38      -35.08      
C           116.74      143.77      -52.1       
C           117.94      142.98      -52.0       
C           116.54      144.57      -51.07      
N           118.4       142.04      -52.8       
N           119.75      142.14      -51.04      
O           119.45      141.45      -52.14      
H           117.16      145.28      -49.21      
H           115.68      145.18      -50.84      
C           117.45      144.65      -50.01      
C           118.89      143.11      -50.92      
C           118.64      143.96      -49.84      
C           103.28      140.51      -60.9       
C           103.37      141.31      -59.84      
S           104.87      140.05      -61.6       
C           108.44      142.92      -57.18      
C           108.62      142.2       -58.38      
C           109.87      141.74      -58.8       
C           111.01      142.0       -57.92      
C           110.84      142.87      -56.81      
C           109.6       143.33      -56.42      
C           112.47      141.54      -58.01      
C           113.08      142.29      -56.8       
C           112.09      142.99      -56.08      
C           107.0       143.28      -56.92      
C           106.35      142.62      -58.07      
C           107.29      142.07      -58.97      
C           114.33      142.17      -56.2       
C           114.59      142.76      -54.91      
C           113.57      143.46      -54.25      
C           112.3       143.51      -54.82      
C           105.06      142.43      -58.37      
C           104.71      141.69      -59.49      
C           105.65      141.15      -60.35      
C           106.98      141.32      -60.08      
C           112.95      142.08      -59.38      
C           112.62      140.06      -57.96      
C           106.74      144.79      -56.92      
C           106.6       142.69      -55.52      
H           109.52      143.98      -55.58      
H           109.99      141.15      -59.7       
H           104.3       142.9       -57.8       
H           107.72      140.74      -60.62      
H           115.17      141.78      -56.76      
H           111.44      143.97      -54.32      
H           112.94      141.3       -60.14      
H           112.26      142.87      -59.73      
H           113.88465   142.64079   -59.38719   
H           112.21      139.68      -58.88      
H           113.67      139.79      -58.0       
H           112.01619   139.64576   -57.15258   
H           106.77      143.44      -54.72      
H           105.46      142.52      -55.39      
H           107.00037   141.69999   -55.30162   
H           107.28      145.25      -56.1       
H           105.68      144.98      -56.85      
H           107.02136   145.24906   -57.86774   
H           116.76      142.53      -54.71      
H           102.59      141.38      -59.09      
S           114.11      144.3       -52.87      
C           115.85      142.97      -54.33      
C           115.73      143.7       -53.16      
C           99.78       138.58      -62.71      
C           99.83       138.89      -61.33      
C           100.83      139.04      -63.48      
N           98.98       138.65      -60.37      
N           100.68      139.64      -59.4       
O           99.48       139.06      -59.17      
H           102.75      140.12      -63.49      
H           100.93      138.78      -64.57      
C           102.0       139.62      -62.84      
C           100.94      139.54      -60.74      
C           102.13      139.78      -61.48      
C           90.74       128.45      -71.59      
C           90.93       129.79      -72.0       
S           90.36       128.47      -69.89      
C           93.06       134.1       -68.17      
C           92.48       133.02      -67.46      
C           92.47       133.06      -66.07      
C           93.41       133.94      -65.43      
C           93.98       134.99      -66.16      
C           93.74       135.16      -67.56      
C           93.82       134.06      -63.97      
C           94.91       135.14      -64.08      
C           94.9        135.72      -65.38      
C           92.8        134.08      -69.67      
C           92.34       132.62      -69.79      
C           92.0        132.08      -68.54      
C           95.89       135.52      -63.14      
C           96.78       136.5       -63.54      
C           96.73       137.19      -64.79      
C           95.86       136.66      -65.72      
C           91.93       131.96      -70.98      
C           91.32       130.68      -70.91      
C           91.15       130.08      -69.64      
C           91.42       130.76      -68.46      
C           94.42       132.73      -63.4       
C           92.72       134.69      -63.07      
C           94.12       134.24      -70.52      
C           91.66       135.03      -70.22      
H           94.25       135.95      -68.08      
H           92.06       132.22      -65.47      
H           92.18       132.27      -72.01      
H           91.19       130.27      -67.51      
H           95.92       135.07      -62.13      
H           95.84       137.13      -66.76      
H           93.72       132.06      -63.11      
H           94.99       132.97      -62.4       
H           95.16038    132.25819   -64.04602   
H           92.19       135.43      -63.67      
H           93.15       135.27      -62.32      
H           91.96417    134.00548   -62.68496   
H           92.01       135.95      -70.68      
H           91.25       134.61      -71.14      
H           90.86365    135.27175   -69.51609   
H           94.58       135.23      -70.46      
H           93.83       134.07      -71.57      
H           94.88231    133.49168   -70.3032    
H           98.12       136.73      -61.71      
H           91.04       130.1       -73.04      
S           98.07       138.35      -64.88      
C           97.85       137.01      -62.71      
C           98.62       137.91      -63.32      
C           89.24       125.38      -74.39      
C           89.6        125.13      -73.04      
C           89.28       126.7       -74.64      
N           89.56       123.95      -72.47      
N           90.32       125.52      -70.99      
O           89.87       124.24      -71.15      
H           89.74       128.73      -73.97      
H           88.96       127.01      -75.66      
C           89.78       127.7       -73.66      
C           90.09       126.11      -72.11      
C           90.35       127.41      -72.48      
C           83.63       114.41      -85.78      
C           84.6        115.31      -86.03      
S           82.97       114.7       -84.21      
C           86.68       119.3       -81.87      
C           85.64       118.51      -81.47      
C           85.09       118.6       -80.16      
C           85.61       119.58      -79.25      
C           86.75       120.3       -79.65      
C           87.26       120.27      -80.97      
C           85.22       119.9       -77.79      
C           86.27       120.93      -77.45      
C           87.07       121.21      -78.6       
C           87.01       118.96      -83.34      
C           86.16       117.75      -83.63      
C           85.18       117.68      -82.58      
C           86.31       121.75      -76.36      
C           87.32       122.73      -76.22      
C           88.21       122.93      -77.3       
C           88.12       122.2       -78.51      
C           86.05       117.05      -84.83      
C           84.97       116.12      -84.91      
C           84.06       116.02      -83.8       
C           84.18       116.71      -82.65      
C           85.41       118.67      -76.91      
C           83.73       120.39      -77.75      
C           88.54       118.52      -83.55      
C           86.54       120.06      -84.28      
H           87.98       121.05      -81.36      
H           84.27       117.97      -79.86      
H           86.86       117.12      -85.56      
H           83.48       116.57      -81.8       
H           85.7        121.52      -75.51      
H           88.8        122.32      -79.35      
H           84.66       117.96      -77.3       
H           86.43       118.39      -77.1       
H           85.11993    118.78603   -75.86573   
H           82.96       119.69      -78.04      
H           83.44       120.8       -76.77      
H           83.54817    121.22922   -78.42138   
H           86.48       119.76      -85.33      
H           85.57       120.29      -84.0       
H           87.22301    120.90837   -84.32314   
H           89.2        119.37      -83.39      
H           88.66       118.17      -84.5       
H           88.83599    117.72839   -82.86164   
H           87.3        123.51      -74.13      
H           85.16       115.28      -86.92      
S           89.28       124.29      -77.01      
C           87.72       123.53      -75.12      
C           88.7        124.43      -75.34      
C           81.58       111.26      -88.18      
C           82.57       112.11      -88.69      
C           81.43       111.45      -86.84      
N           83.05       112.04      -89.97      
N           83.96       113.85      -88.92      
O           84.0        113.0       -90.01      
H           81.99       112.47      -85.05      
H           80.7        110.91      -86.3       
C           82.17       112.39      -86.09      
C           83.13       113.23      -88.04      
C           82.99       113.39      -86.64      
H           69.8        31.3        1.24        
H           80.81       110.88      -88.86      
