612

C           32.35       14.88       1.57        
C           32.24       13.91       2.53        
S           30.76       15.18       0.84        
C           26.95       11.16       4.22        
C           26.82       12.08       3.06        
C           25.54       12.29       2.45        
C           24.45       11.69       3.1         
C           24.61       10.81       4.23        
C           25.84       10.56       4.79        
C           22.97       11.88       2.74        
C           22.31       10.88       3.71        
C           23.28       10.26       4.55        
C           28.44       10.84       4.43        
C           29.12       11.87       3.49        
C           28.19       12.56       2.68        
C           21.01       10.35       3.7         
C           20.75       9.33        4.59        
C           21.71       8.73        5.36        
C           23.04       9.15        5.28        
C           30.43       12.3        3.49        
C           30.86       13.32       2.62        
C           29.93       13.9        1.75        
C           28.56       13.45       1.73        
C           22.59       11.43       1.29        
C           22.54       13.32       3.06        
C           28.76       9.41        4.11        
C           28.83       11.24       5.9         
H           25.93       9.85        5.62        
H           25.42       12.85       1.46        
H           31.19       11.76       4.06        
H           27.77       13.88       1.12        
H           20.15       10.85       3.21        
H           23.8        8.65        5.86        
H           23.1        12.07       0.57        
H           21.58       11.6        1.03        
H           22.93449    10.41761    1.07908     
H           22.6        13.57       4.13        
H           21.4        13.25       2.88        
H           23.00655    14.03777    2.38529     
H           29.98       11.27       5.88        
H           28.4        12.22       5.94        
H           28.39717    10.6835     6.73131     
H           28.42       8.71        4.89        
H           29.85       9.31        4.03        
H           28.37407    9.10269     3.13803     
H           18.64       8.77        4.07        
H           33.02       13.44       3.1         
S           21.02       7.43        6.35        
C           19.46       8.68        4.75        
C           19.45       7.67        5.61        
C           36.15       16.28       -0.15       
C           34.88       16.94       -0.34       
C           36.01       15.2        0.66        
N           34.71       18.06       -1.07       
N           32.7        17.26       -0.42       
O           33.35       18.28       -1.1        
H           34.81       13.94       1.91        
H           36.82       14.57       0.75        
C           34.77       14.78       1.25        
C           33.62       16.55       0.11        
C           33.6        15.45       1.04        
C           51.37       17.98       -6.73       
C           51.17       17.51       -5.46       
S           49.89       18.21       -7.65       
C           45.61       16.79       -3.14       
C           45.56       17.25       -4.49       
C           44.41       17.5        -5.19       
C           43.27       17.36       -4.47       
C           43.3        16.88       -3.19       
C           44.44       16.57       -2.5        
C           41.89       17.82       -4.91       
C           41.08       17.33       -3.8        
C           41.88       16.82       -2.72       
C           47.1        16.64       -2.6        
C           47.83       16.89       -3.92       
C           46.95       17.3        -5.01       
C           39.72       17.37       -3.67       
C           39.17       17.02       -2.39       
C           39.98       16.47       -1.39       
C           41.33       16.42       -1.48       
C           49.22       16.88       -4.04       
C           49.8        17.29       -5.23       
C           48.93       17.69       -6.27       
C           47.48       17.76       -6.23       
C           41.44       17.06       -6.15       
C           41.57       19.34       -4.82       
C           47.32       15.18       -2.0        
C           47.47       17.73       -1.57       
H           44.43       16.28       -1.43       
H           44.41       17.58       -6.26       
H           49.82       16.48       -3.28       
H           46.85       18.1        -7.04       
H           39.0        17.63       -4.4        
H           41.97       16.17       -0.57       
H           41.98       17.47       -7.04       
H           40.42       17.31       -6.21       
H           41.66817    15.99759    -6.06444    
H           41.29       19.71       -3.81       
H           40.67       19.55       -5.44       
H           42.3537     19.92601    -5.30011    
H           48.38       17.38       -1.01       
H           47.83       18.57       -2.15       
H           46.7129     17.98005    -0.82679    
H           48.21       15.03       -1.32       
H           46.44       15.02       -1.36       
H           47.19997    14.41748    -2.76958    
H           36.9        17.33       -2.66       
H           51.91       17.31       -4.71       
S           38.98       16.13       -0.01       
C           37.75       17.05       -1.98       
C           37.47       16.55       -0.78       
C           54.84       20.24       -8.44       
C           54.8        19.82       -7.06       
C           53.89       19.64       -9.2        
N           55.64       20.12       -6.1        
N           54.08       18.74       -5.34       
O           55.19       19.43       -5.0        
H           51.99       18.48       -9.37       
H           53.78       19.9        -10.21      
C           52.81       18.81       -8.67       
C           53.79       18.97       -6.56       
C           52.57       18.61       -7.29       
C           65.79       31.71       -12.77      
C           65.33       31.61       -11.52      
S           65.42       30.36       -13.83      
C           61.24       27.49       -10.12      
C           61.71       27.46       -11.49      
C           61.29       26.48       -12.39      
C           60.34       25.56       -11.99      
C           59.83       25.59       -10.66      
C           60.34       26.53       -9.68       
C           59.62       24.45       -12.76      
C           58.75       23.73       -11.69      
C           58.84       24.52       -10.51      
C           61.96       28.57       -9.34       
C           62.74       29.26       -10.37      
C           62.64       28.5        -11.58      
C           57.97       22.6        -11.72      
C           57.19       22.33       -10.59      
C           57.25       23.23       -9.44       
C           58.05       24.34       -9.36       
C           63.65       30.29       -10.28      
C           64.39       30.61       -11.4       
C           64.26       29.87       -12.6       
C           63.4        28.88       -12.67      
C           60.72       23.47       -13.29      
C           58.77       24.92       -13.97      
C           62.81       27.83       -8.27       
C           60.97       29.45       -8.78       
H           59.97       26.54       -8.63       
H           61.62       26.6        -13.4       
H           63.57       31.03       -9.45       
H           63.44       28.32       -13.63      
H           57.98       21.95       -12.6       
H           58.16       24.86       -8.5        
H           60.46       23.17       -14.31      
H           61.71       23.99       -13.42      
H           60.92127    22.55386    -12.73477   
H           59.33       25.56       -14.63      
H           58.48       24.06       -14.6       
H           57.91025    25.52899    -13.69058   
H           60.47       28.89       -7.94       
H           61.48       30.38       -8.39       
H           60.28444    29.92691    -9.48047    
H           62.18       27.24       -7.62       
H           63.54       27.18       -8.73       
H           63.42261    28.48486    -7.65035    
H           56.11       20.33       -11.02      
H           65.74       32.21       -10.74      
S           56.44       22.57       -8.09       
C           56.37       21.17       -10.33      
C           55.84       21.14       -9.05       
C           69.79       33.28       -14.19      
C           68.52       33.68       -14.79      
C           69.63       32.39       -13.16      
N           68.28       34.51       -15.85      
N           66.27       33.72       -15.0       
O           66.89       34.57       -15.93      
H           68.28       31.17       -11.88      
H           70.49       31.82       -12.7       
C           68.33       31.93       -12.7       
C           67.27       33.25       -14.31      
C           67.11       32.35       -13.17      
C           85.33       38.91       -14.95      
C           84.99       37.89       -14.11      
S           83.91       39.84       -15.44      
C           79.2        36.1        -13.49      
C           79.43       37.23       -14.23      
C           78.43       37.82       -15.01      
C           77.13       37.32       -14.89      
C           76.94       36.13       -14.15      
C           77.98       35.46       -13.43      
C           75.86       37.72       -15.67      
C           74.87       36.68       -15.15      
C           75.56       35.7        -14.32      
C           80.52       35.45       -13.04      
C           81.5        36.52       -13.5       
C           80.83       37.53       -14.24      
C           73.53       36.49       -15.49      
C           72.81       35.37       -14.98      
C           73.53       34.44       -14.15      
C           74.83       34.59       -13.74      
C           82.87       36.64       -13.32      
C           83.59       37.66       -14.06      
C           82.84       38.65       -14.79      
C           81.44       38.57       -14.92      
C           76.15       37.67       -17.17      
C           75.68       39.18       -15.21      
C           80.71       34.16       -13.94      
C           80.52       35.2        -11.53      
H           77.92       34.46       -12.97      
H           78.63       38.67       -15.68      
H           83.38       36.0        -12.6       
H           80.81       39.23       -15.55      
H           73.0        37.33       -16.03      
H           75.28       33.8        -13.13      
H           77.04       38.35       -17.38      
H           76.37       36.65       -17.5       
H           75.3089     37.94566    -17.80613   
H           76.48       39.87       -15.6       
H           74.83       39.69       -15.55      
H           75.70789    39.31944    -14.12932   
H           80.02       34.2        -11.26      
H           81.52       35.28       -11.13      
H           79.94293    35.93893    -10.97405   
H           80.06       33.37       -13.42      
H           81.8        33.88       -13.95      
H           80.32955    34.25684    -14.95685   
H           70.74       35.6        -15.68      
H           85.73       37.16       -13.72      
S           72.47       33.2        -13.58      
C           71.42       34.97       -15.11      
C           71.09       33.88       -14.38      
C           89.07       39.76       -17.19      
C           89.05       38.78       -16.12      
C           87.88       40.5        -17.29      
N           89.95       37.93       -15.67      
N           88.06       37.6        -14.52      
O           89.31       37.11       -14.81      
H           85.83       40.86       -16.69      
H           87.84       41.27       -18.07      
C           86.71       40.24       -16.47      
C           87.81       38.59       -15.32      
C           86.61       39.3        -15.54      
C           97.79       41.49       -31.23      
C           96.49       41.73       -31.09      
S           98.54       41.05       -29.7       
C           93.67       41.25       -25.69      
C           95.05       40.88       -25.67      
C           95.59       40.59       -24.41      
C           94.75       40.35       -23.34      
C           93.41       40.7        -23.42      
C           92.84       41.14       -24.54      
C           95.18       40.07       -21.89      
C           93.77       39.98       -21.28      
C           92.75       40.39       -22.16      
C           93.36       42.08       -26.92      
C           94.48       41.59       -27.83      
C           95.53       40.99       -27.06      
C           93.36       39.73       -19.93      
C           92.04       39.94       -19.51      
C           91.08       40.37       -20.45      
C           91.43       40.61       -21.79      
C           94.65       41.68       -29.2       
C           95.95       41.51       -29.75      
C           97.0        41.2        -28.89      
C           96.83       40.91       -27.59      
C           96.11       41.24       -21.33      
C           96.06       38.86       -21.75      
C           93.35       43.59       -26.62      
C           91.92       41.66       -27.35      
H           91.8        41.33       -24.58      
H           96.59       40.27       -24.27      
H           93.81       41.99       -29.8       
H           97.67       40.74       -26.96      
H           94.04       39.28       -19.23      
H           90.68       41.12       -22.45      
H           96.95       41.56       -21.9       
H           96.51       40.77       -20.5       
H           95.4867     42.04958    -20.95029   
H           97.06       39.24       -21.82      
H           96.09       38.41       -20.78      
H           95.78202    38.09021    -22.4699    
H           91.14       42.02       -26.61      
H           91.63       42.16       -28.29      
H           91.80264    40.60372    -27.59206   
H           92.53       43.87       -26.0       
H           94.22       43.95       -26.01      
H           93.41362    44.20496    -27.5177    
H           91.87       39.38       -17.29      
H           95.83       42.07       -31.89      
S           89.45       40.45       -19.83      
C           91.44       39.68       -18.21      
C           90.09       40.01       -18.19      
C           100.64      41.87       -34.69      
C           99.21       42.15       -34.85      
C           100.96      41.57       -33.39      
N           98.5        42.5        -35.89      
N           97.07       42.29       -34.12      
O           97.23       42.71       -35.43      
H           100.49      41.03       -31.43      
H           102.01      41.38       -33.18      
C           100.03      41.31       -32.33      
C           98.3        41.96       -33.75      
C           98.66       41.53       -32.44      
C           112.53      44.87       -45.97      
C           112.78      44.93       -44.65      
S           110.88      44.25       -46.29      
C           108.55      43.37       -40.41      
C           108.12      43.27       -41.79      
C           106.77      42.94       -42.09      
C           105.89      42.52       -41.07      
C           106.35      42.63       -39.75      
C           107.69      42.99       -39.39      
C           104.4       42.49       -41.21      
C           103.98      42.17       -39.75      
C           105.15      42.32       -38.89      
C           110.09      43.37       -40.45      
C           110.36      43.81       -41.9       
C           109.21      43.63       -42.66      
C           102.76      41.94       -39.22      
C           102.63      41.93       -37.87      
C           103.77      42.26       -36.99      
C           105.06      42.38       -37.51      
C           111.55      44.29       -42.51      
C           111.65      44.46       -43.89      
C           110.47      44.21       -44.62      
C           109.34      43.71       -44.02      
C           103.95      41.38       -42.18      
C           103.73      43.82       -41.71      
C           110.55      41.93       -40.12      
C           110.63      44.44       -39.49      
H           107.97      43.14       -38.37      
H           106.46      43.02       -43.1       
H           112.42      44.49       -41.95      
H           108.51      43.51       -44.66      
H           101.92      41.94       -39.75      
H           105.89      42.56       -36.86      
H           103.08      41.58       -42.69      
H           104.7       41.36       -43.02      
H           104.07988   40.41616    -41.68782   
H           104.21      44.21       -42.62      
H           102.67      43.61       -41.92      
H           103.79321   44.61364    -40.96553   
H           110.56      44.1        -38.42      
H           111.64      44.7        -39.79      
H           110.08873   45.38542    -39.45392   
H           111.44      42.04       -39.5       
H           109.91      41.35       -39.44      
H           110.69378   41.3275     -41.0169    
H           100.48      41.62       -37.55      
H           113.69      45.27       -44.26      
S           103.25      42.42       -35.33      
C           101.43      41.85       -37.03      
C           101.62      41.99       -35.74      
C           114.52      47.35       -48.98      
C           113.75      46.2        -49.38      
C           114.65      47.49       -47.62      
N           113.5       45.73       -50.55      
N           112.47      44.43       -48.99      
O           112.76      44.6        -50.3       
H           114.39      46.79       -45.6       
H           115.21      48.37       -47.25      
C           114.08      46.64       -46.62      
C           113.11      45.43       -48.34      
C           113.26      45.67       -46.95      
C           119.86      59.22       -59.47      
C           119.71      59.4        -58.15      
S           119.42      57.52       -59.97      
C           118.29      54.87       -54.36      
C           118.3       54.45       -55.74      
C           118.05      53.13       -56.14      
C           117.69      52.25       -55.11      
C           117.49      52.68       -53.82      
C           117.81      54.01       -53.43      
C           117.45      50.76       -55.18      
C           116.89      50.49       -53.81      
C           116.9       51.63       -53.01      
C           118.7       56.34       -54.17      
C           118.9       56.75       -55.6       
C           118.78      55.58       -56.49      
C           116.27      49.32       -53.34      
C           115.97      49.2        -51.98      
C           116.14      50.35       -51.2       
C           116.53      51.55       -51.65      
C           119.15      58.02       -56.07      
C           119.32      58.19       -57.51      
C           119.19      57.02       -58.34      
C           118.92      55.76       -57.86      
C           118.78      50.01       -55.4       
C           116.41      50.45       -56.26      
C           119.98      56.31       -53.27      
C           117.61      57.25       -53.42      
H           117.68      54.32       -52.4       
H           118.02      52.79       -57.18      
H           119.33      58.8        -55.38      
H           118.88      54.98       -58.66      
H           116.2       48.44       -53.94      
H           116.57      52.48       -51.08      
H           118.46      49.18       -56.02      
H           119.5       50.59       -56.0       
H           119.41297   49.80133    -54.5375    
H           116.81      50.76       -57.26      
H           116.19      49.44       -56.35      
H           115.45563   50.93748    -56.06089   
H           117.34      56.88       -52.45      
H           117.88      58.29       -53.32      
H           116.69801   57.22194    -54.0163    
H           119.77      55.63       -52.43      
H           120.19      57.33       -52.88      
H           120.84431   55.87421    -53.77116   
H           114.99      47.17       -51.79      
H           120.06      60.31       -57.55      
S           115.71      49.92       -49.53      
C           115.36      48.07       -51.28      
C           115.16      48.27       -49.97      
C           119.91      62.17       -62.61      
C           120.33      62.53       -61.32      
C           119.91      60.83       -62.88      
N           120.51      63.75       -60.88      
N           120.64      62.22       -59.12      
O           120.62      63.55       -59.48      
H           119.96      58.79       -62.03      
H           119.8       60.48       -63.84      
C           119.99      59.85       -61.81      
C           120.39      61.57       -60.24      
C           120.12      60.21       -60.5       
C           119.86      71.2        -76.46      
C           120.61      71.39       -75.38      
S           118.62      69.98       -76.17      
C           120.18      68.32       -70.15      
C           119.16      67.97       -71.07      
C           118.28      66.97       -70.81      
C           118.27      66.4        -69.57      
C           119.23      66.75       -68.65      
C           120.23      67.7        -68.85      
C           117.38      65.19       -69.12      
C           118.1       64.92       -67.81      
C           119.07      65.89       -67.52      
C           121.01      69.48       -70.67      
C           120.53      69.63       -72.13      
C           119.5       68.68       -72.37      
C           117.9       63.87       -66.93      
C           118.6       63.79       -65.73      
C           119.5       64.91       -65.44      
C           119.77      65.92       -66.32      
C           120.98      70.51       -73.04      
C           120.35      70.47       -74.3       
C           119.26      69.57       -74.58      
C           118.89      68.6        -73.63      
C           117.48      64.0        -70.13      
C           115.92      65.62       -68.92      
C           122.52      69.17       -70.7       
C           120.77      70.77       -69.94      
H           120.93      67.92       -68.06      
H           117.65      66.65       -71.61      
H           121.69      71.32       -72.81      
H           118.11      67.92       -73.86      
H           117.06      63.1        -67.18      
H           120.52      66.7        -66.17      
H           117.31      64.47       -71.12      
H           118.52      63.59       -70.15      
H           116.83193   63.1451     -69.93696   
H           115.33      65.29       -69.77      
H           115.71      64.96       -68.11      
H           115.73903   66.65514    -68.63045   
H           121.29      70.71       -68.97      
H           121.06      71.64       -70.58      
H           119.71771   70.9673     -69.73539   
H           122.83      69.05       -69.63      
H           123.19      69.89       -71.14      
H           122.71517   68.24475    -71.24214   
H           118.05      61.81       -64.84      
H           121.34      72.17       -75.23      
S           120.39      64.56       -63.99      
C           118.67      62.73       -64.74      
C           119.56      63.02       -63.71      
C           121.04      72.74       -80.44      
C           119.77      73.14       -79.87      
C           121.74      71.96       -79.58      
N           118.78      73.84       -80.39      
N           118.19      73.14       -78.24      
O           117.81      73.84       -79.4       
H           121.96      70.75       -77.85      
H           122.72      71.77       -79.84      
C           121.29      71.4        -78.35      
C           119.39      72.64       -78.55      
C           120.17      71.77       -77.73      
C           123.38      77.55       -95.76      
C           123.96      76.34       -95.44      
S           123.09      78.57       -94.39      
C           124.08      74.58       -89.63      
C           123.8       75.89       -89.85      
C           123.3       76.71       -88.87      
C           123.01      76.14       -87.65      
C           123.27      74.81       -87.45      
C           123.7       73.98       -88.45      
C           122.43      76.84       -86.39      
C           122.36      75.61       -85.44      
C           122.91      74.46       -86.07      
C           124.5       73.93       -90.98      
C           124.4       75.06       -91.95      
C           123.94      76.2        -91.27      
C           121.9       75.6        -84.18      
C           121.88      74.47       -83.51      
C           122.25      73.31       -84.12      
C           122.78      73.25       -85.39      
C           124.55      75.05       -93.34      
C           124.27      76.19       -94.06      
C           123.79      77.34       -93.29      
C           123.5       77.34       -91.93      
C           121.1       77.46       -86.65      
C           123.4       77.84       -85.66      
C           123.39      72.91       -91.45      
C           125.88      73.35       -90.95      
H           123.97      72.96       -88.28      
H           123.1       77.82       -89.08      
H           124.76      74.13       -93.87      
H           123.04      78.21       -91.5       
H           121.48      76.49       -83.72      
H           123.17      72.29       -85.87      
H           121.1       78.32       -87.31      
H           120.85      77.97       -85.66      
H           120.30818   76.75456    -86.90194   
H           124.23      77.23       -85.26      
H           122.83      78.3        -84.87      
H           123.82934   78.55556    -86.36125   
H           125.88      72.41       -90.36      
H           126.22      73.25       -91.97      
H           126.58531   73.97151    -90.39832   
H           123.28      72.14       -90.63      
H           123.82      72.46       -92.35      
H           122.39126   73.34302    -91.50587   
H           120.78      75.2        -81.74      
H           124.05      75.54       -96.12      
S           122.19      72.07       -82.84      
C           121.35      74.4        -82.24      
C           121.5       73.21       -81.69      
C           121.66      79.18       -99.47      
C           121.72      77.73       -99.17      
C           122.38      79.9        -98.54      
N           121.39      76.7        -99.88      
N           122.26      75.87       -98.04      
O           121.54      75.57       -99.18      
H           123.53      79.97       -96.63      
H           122.65      80.94       -98.76      
C           122.91      79.35       -97.31      
C           122.28      77.17       -97.97      
C           122.83      78.05       -96.99      
C           123.01      85.3        -114.16     
C           123.3       86.01       -113.04     
S           121.96      83.98       -113.76     
C           121.2       84.39       -107.6      
C           120.62      83.68       -108.64     
C           119.95      82.45       -108.37     
C           119.8       82.03       -107.03     
C           120.4       82.74       -106.02     
C           121.03      83.99       -106.26     
C           119.39      80.66       -106.59     
C           119.76      80.73       -105.08     
C           120.22      82.04       -104.74     
C           121.9       85.71       -108.09     
C           121.86      85.45       -109.58     
C           121.13      84.26       -109.86     
C           119.67      79.77       -104.1      
C           120.24      80.04       -102.8      
C           120.71      81.34       -102.59     
C           120.69      82.36       -103.49     
C           122.63      86.13       -110.51     
C           122.58      85.57       -111.82     
C           121.79      84.44       -112.07     
C           120.96      83.8        -111.12     
C           120.2       79.48       -107.24     
C           117.89      80.4        -106.72     
C           123.31      85.81       -107.46     
C           121.06      86.96       -107.73     
H           121.61      84.55       -105.44     
H           119.53      81.93       -109.2      
H           123.22      87.01       -110.25     
H           120.39      82.93       -111.4      
H           119.24      78.78       -104.32     
H           121.03      83.38       -103.21     
H           119.67      78.47       -107.31     
H           120.17      79.76       -108.29     
H           121.24544   79.43154    -106.93537  
H           117.6       79.41       -107.05     
H           117.51      80.46       -105.72     
H           117.42876   81.15928    -107.35155  
H           121.6       87.65       -107.05     
H           120.9       87.45       -108.71     
H           120.0655    86.72939    -107.34805  
H           123.21      85.97       -106.35     
H           123.78      86.72       -107.82     
H           123.97503   84.99797    -107.75401  
H           120.08      78.14       -101.55     
H           123.83      86.97       -113.1      
S           121.3       81.5        -100.98     
C           120.46      79.18       -101.61     
C           121.07      79.82       -100.63     
C           123.75      86.21       -118.38     
C           124.56      86.71       -117.36     
C           122.66      85.49       -117.9      
N           125.56      87.46       -117.45     
N           125.33      87.0        -115.24     
O           126.08      87.58       -116.22     
H           121.51      84.69       -116.26     
H           121.9       85.23       -118.61     
C           122.44      85.21       -116.54     
C           124.38      86.38       -115.99     
C           123.3       85.59       -115.55     
H           18.58       6.96        5.75        
H           123.7       86.66       -119.35     
