612

C           41.76       7.9         12.75       
C           41.22       7.86        14.01       
S           40.7        8.62        11.57       
C           35.85       10.07       15.48       
C           36.25       10.32       14.19       
C           35.48       11.1        13.33       
C           34.36       11.73       13.86       
C           33.95       11.48       15.16       
C           34.68       10.62       16.0        
C           33.48       12.87       13.22       
C           32.39       12.96       14.33       
C           32.72       12.19       15.43       
C           36.79       9.12        16.3        
C           37.84       8.93        15.18       
C           37.46       9.54        13.95       
C           31.34       13.87       14.38       
C           30.52       13.98       15.48       
C           30.87       13.24       16.62       
C           31.94       12.31       16.59       
C           39.05       8.41        15.22       
C           39.87       8.31        14.07       
C           39.45       8.83        12.8        
C           38.23       9.4         12.72       
C           32.77       12.44       11.9        
C           34.13       14.24       13.06       
C           36.1        7.78        16.65       
C           37.49       9.75        17.55       
H           34.18       10.35       16.97       
H           35.72       11.24       12.28       
H           39.33       7.91        16.15       
H           38.01       9.97        11.87       
H           31.08       14.4        13.43       
H           32.21       11.74       17.46       
H           33.44       12.55       11.09       
H           31.98       13.09       11.64       
H           32.35389    11.43258    11.8927     
H           34.47       14.66       13.98       
H           33.51       15.02       12.6        
H           35.0104     14.1781     12.42034    
H           38.2        8.97        17.83       
H           38.02       10.58       17.23       
H           36.8773     10.00837    18.41368    
H           35.32       8.03        17.36       
H           36.85       7.17        17.08       
H           35.56007    7.36795     15.79748    
H           28.84       15.41       15.06       
H           41.82       7.54        14.88       
S           29.84       13.54       17.96       
C           29.29       14.77       15.78       
C           28.79       14.55       17.01       
C           45.76       6.43        11.58       
C           45.46       6.92        12.94       
C           44.66       6.49        10.8        
N           46.22       6.9         14.06       
N           44.28       7.95        14.55       
O           45.57       7.65        14.94       
H           42.58       7.08        10.38       
H           44.75       6.22        9.76        
C           43.4        7.07        11.15       
C           44.21       7.61        13.27       
C           43.11       7.6         12.36       
C           58.78       -4.02       10.35       
C           57.7        -4.14       9.46        
S           58.48       -2.85       11.57       
C           52.94       -0.37       9.72        
C           53.9        -0.18       10.75       
C           53.82       0.91        11.65       
C           52.67       1.74        11.62       
C           51.65       1.52        10.71       
C           51.86       0.5         9.74        
C           52.39       2.98        12.45       
C           51.07       3.42        11.91       
C           50.57       2.59        10.84       
C           53.36       -1.44       8.73        
C           54.53       -1.99       9.5         
C           54.86       -1.22       10.65       
C           50.29       4.49        12.32       
C           49.1        4.79        11.61       
C           48.72       4.01        10.53       
C           49.45       2.9         10.12       
C           55.35       -3.04       9.17        
C           56.6        -3.28       9.73        
C           56.93       -2.51       10.82       
C           56.03       -1.54       11.35       
C           53.47       4.05        12.13       
C           52.15       2.65        13.95       
C           53.58       -0.66       7.38        
C           52.34       -2.59       8.49        
H           51.09       0.45        8.93        
H           54.48       1.0         12.46       
H           55.08       -3.62       8.36        
H           56.29       -1.06       12.26       
H           50.62       5.2         13.16       
H           49.08       2.22        9.3         
H           54.46       3.77        12.45       
H           53.15       4.9         12.82       
H           53.3854     4.43774     11.11482    
H           51.25       1.95        13.94       
H           51.88       3.48        14.57       
H           52.96343    2.05396     14.36373    
H           51.33       -2.23       8.17        
H           52.68       -3.22       7.63        
H           52.14147    -3.19267    9.37627     
H           52.64       -0.5        6.83        
H           53.85       0.35        7.54        
H           54.36771    -1.10398    6.77132     
H           48.25       6.36        12.9        
H           57.65       -4.85       8.62        
S           47.13       4.6         9.93        
C           48.16       5.81        11.97       
C           47.03       5.88        11.18       
C           63.0        -5.7        10.05       
C           62.19       -5.3        8.87        
C           62.2        -5.64       11.18       
N           62.49       -5.34       7.51        
N           60.43       -4.34       7.69        
O           61.49       -4.67       6.89        
H           60.53       -5.04       12.2        
H           62.59       -6.16       12.06       
C           60.96       -4.96       11.22       
C           60.86       -4.63       8.9         
C           60.2        -4.41       10.16       
C           79.33       -8.11       11.83       
C           78.4        -8.18       12.89       
S           78.47       -8.11       10.31       
C           72.4        -7.56       12.15       
C           73.15       -7.68       10.98       
C           72.57       -7.66       9.71        
C           71.19       -7.49       9.6         
C           70.42       -7.59       10.76       
C           71.02       -7.51       12.01       
C           70.26       -7.18       8.39        
C           68.86       -7.31       9.06        
C           68.98       -7.49       10.48       
C           73.26       -7.93       13.39       
C           74.63       -8.11       12.73       
C           74.55       -7.87       11.33       
C           67.6        -7.11       8.52        
C           66.51       -6.95       9.34        
C           66.71       -6.94       10.76       
C           67.91       -7.3        11.34       
C           75.85       -8.14       13.36       
C           76.99       -8.16       12.52       
C           76.92       -8.09       11.09       
C           75.68       -7.94       10.52       
C           70.36       -8.33       7.34        
C           70.39       -5.79       7.74        
C           72.66       -9.29       13.74       
C           73.25       -6.88       14.55       
H           70.37       -7.47       12.9        
H           73.24       -7.79       8.82        
H           75.99       -8.32       14.4        
H           75.66       -7.86       9.39        
H           67.46       -7.05       7.44        
H           68.12       -7.26       12.41       
H           69.8        -8.07       6.41        
H           71.35       -8.49       6.97        
H           69.98621    -9.28603    7.7066      
H           71.26       -6.0        7.09        
H           69.51       -5.39       7.18        
H           70.73782    -5.05262    8.46346     
H           73.57       -7.5        15.39       
H           73.85       -6.01       14.26       
H           72.31902    -6.34503    14.73759    
H           71.63       -9.17       14.09       
H           72.62       -9.74       12.74       
H           73.28143    -9.96086    14.33318    
H           64.86       -6.48       7.95        
H           78.62       -8.05       13.94       
S           65.24       -6.52       11.51       
C           65.17       -6.54       8.99        
C           64.35       -6.29       10.02       
C           83.76       -8.06       11.67       
C           83.03       -8.25       12.93       
C           82.93       -7.7        10.68       
N           83.57       -8.54       14.14       
N           81.24       -8.57       14.21       
O           82.48       -8.77       14.87       
H           81.02       -7.48       9.74        
H           83.38       -7.62       9.65        
C           81.48       -7.7        10.69       
C           81.63       -8.32       12.91       
C           80.79       -8.0        11.84       
C           99.48       -2.8        13.06       
C           98.54       -2.84       14.05       
S           98.8        -3.5        11.6        
C           92.79       -4.78       13.26       
C           93.57       -4.89       12.12       
C           93.12       -5.53       10.89       
C           91.82       -5.95       10.79       
C           91.01       -5.73       11.98       
C           91.44       -5.09       13.13       
C           91.09       -6.68       9.66        
C           89.7        -6.89       10.35       
C           89.71       -6.35       11.67       
C           93.51       -4.14       14.46       
C           94.96       -4.06       13.85       
C           94.9        -4.35       12.47       
C           88.54       -7.46       9.84        
C           87.31       -7.44       10.67       
C           87.4        -6.89       11.92       
C           88.59       -6.28       12.41       
C           96.13       -3.58       14.4        
C           97.28       -3.38       13.63       
C           97.26       -3.73       12.27       
C           96.06       -4.2        11.7        
C           91.86       -8.04       9.31        
C           91.0        -5.8        8.37        
C           93.45       -5.06       15.72       
C           93.07       -2.7        14.86       
H           90.83       -5.11       14.03       
H           93.77       -5.61       10.08       
H           96.11       -3.35       15.47       
H           96.04       -4.53       10.64       
H           88.45       -7.84       8.85        
H           88.66       -5.86       13.34       
H           92.41       -7.85       8.4         
H           92.56       -8.06       10.09       
H           91.31203    -8.95328    9.07817     
H           91.98       -5.43       8.1         
H           90.85       -6.47       7.54        
H           90.24111    -5.03414    8.53013     
H           93.52       -2.35       15.79       
H           93.42       -1.99       14.0        
H           91.99034    -2.57764    14.94637    
H           92.39       -5.05       15.97       
H           94.01       -4.64       16.52       
H           93.79858    -6.07668    15.53845    
H           85.69       -8.33       9.46        
H           98.83       -2.48       15.03       
S           85.87       -7.05       12.78       
C           86.0        -7.94       10.39       
C           85.15       -7.9        11.46       
C           103.54      -1.12       13.15       
C           102.44      -0.55       13.94       
C           103.17      -2.11       12.26       
N           102.45      0.47        14.86       
N           100.34      -0.39       14.69       
O           101.13      0.53        15.24       
H           101.67      -3.44       11.59       
H           103.87      -2.63       11.71       
C           101.84      -2.6        12.24       
C           101.12      -1.08       13.92       
C           100.83      -2.2        13.1        
C           116.68      7.9         11.51       
C           116.01      7.94        12.69       
S           116.7       6.26        10.92       
C           111.92      3.79        14.28       
C           112.85      3.34        13.28       
C           112.59      2.26        12.43       
C           111.37      1.62        12.58       
C           110.55      2.02        13.6        
C           110.7       3.12        14.49       
C           110.73      0.53        11.66       
C           109.41      0.33        12.37       
C           109.3       1.29        13.47       
C           112.45      5.03        14.93       
C           113.73      5.31        14.16       
C           113.98      4.36        13.15       
C           108.37      -0.43       12.0        
C           107.18      -0.25       12.67       
C           107.08      0.59        13.83       
C           108.13      1.41        14.3        
C           114.4       6.54        14.04       
C           115.39      6.68        13.06       
C           115.66      5.71        12.17       
C           114.99      4.52        12.23       
C           111.62      -0.8        11.58       
C           110.55      1.0         10.26       
C           112.76      4.61        16.45       
C           111.42      6.2         14.81       
H           110.0       3.35        15.27       
H           113.22      2.04        11.61       
H           114.04      7.39        14.58       
H           115.13      3.76        11.48       
H           108.5       -1.09       11.15       
H           108.1       1.97        15.25       
H           112.72      -0.59       11.68       
H           111.63      -1.32       10.59       
H           111.48619   -1.44793    12.44625    
H           111.55      1.11        9.89        
H           110.08      0.26        9.59        
H           110.12471   2.00195     10.20233    
H           110.67      6.16        15.61       
H           111.98      7.1         14.89       
H           110.8289    6.25499     13.89585    
H           112.33      5.23        17.16       
H           112.2       3.68        16.64       
H           113.83329   4.51114     16.61241    
H           105.85      -1.66       11.56       
H           115.92      8.8         13.29       
S           105.49      0.45        14.52       
C           105.93      -0.92       12.36       
C           104.91      -0.55       13.2        
C           118.08      11.13       8.86        
C           116.88      11.28       9.65        
C           118.81      9.98        9.04        
N           116.06      12.28       9.86        
N           115.43      10.65       11.26       
O           115.17      11.89       10.78       
H           118.91      8.03        9.95        
H           119.67      9.8         8.4         
C           118.37      8.98        9.99        
C           116.48      10.25       10.59       
C           117.22      9.02        10.68       
C           119.92      22.25       -3.48       
C           120.94      21.71       -2.81       
S           118.41      21.75       -2.73       
C           120.31      17.72       1.87        
C           119.11      18.01       1.2         
C           117.87      17.47       1.54        
C           117.95      16.39       2.46        
C           119.14      16.09       3.12        
C           120.39      16.74       2.86        
C           116.87      15.31       2.72        
C           117.41      14.82       4.06        
C           118.8       15.11       4.17        
C           121.45      18.64       1.37        
C           120.79      19.27       0.14        
C           119.39      19.02       0.15        
C           116.85      13.87       4.89        
C           117.61      13.32       5.89        
C           118.99      13.59       5.97        
C           119.54      14.47       5.06        
C           121.37      20.14       -0.74       
C           120.58      20.81       -1.7        
C           119.17      20.7        -1.55       
C           118.57      19.79       -0.67       
C           116.85      14.24       1.62        
C           115.49      16.01       2.85        
C           122.63      17.71       0.91        
C           121.81      19.73       2.34        
H           121.25      16.42       3.46        
H           116.98      17.61       1.01        
H           122.48      20.3        -0.68       
H           117.48      19.65       -0.65       
H           115.79      13.62       4.78        
H           120.57      14.76       5.1         
H           116.21      14.75       0.87        
H           117.8       14.16       1.16        
H           116.70471   13.18666    1.85973     
H           115.4       16.75       2.04        
H           114.68      15.33       2.56        
H           115.31154   16.58822    3.75659     
H           122.88      19.7        2.5         
H           121.62      20.74       1.96        
H           121.37573   19.58762    3.32956     
H           123.57      18.26       0.82        
H           122.86      16.82       1.52        
H           122.4944    17.29605    -0.08918    
H           116.25      12.08       7.13        
H           121.96      21.89       -3.1        
S           119.8       12.66       7.21        
C           117.23      12.47       6.99        
C           118.24      12.08       7.76        
C           119.33      24.13       -7.42       
C           120.68      23.73       -6.96       
C           118.32      23.94       -6.51       
N           121.83      23.73       -7.55       
N           122.18      22.73       -5.62       
O           122.76      23.18       -6.79       
H           117.63      23.17       -4.61       
H           117.35      24.23       -6.85       
C           118.54      23.37       -5.19       
C           120.93      23.12       -5.69       
C           119.82      22.92       -4.76       
C           113.81      25.99       -22.85      
C           113.12      26.58       -21.83      
S           115.3       25.38       -22.3       
C           115.3       26.54       -16.07      
C           116.06      25.92       -17.07      
C           117.26      25.32       -16.78      
C           117.58      25.29       -15.45      
C           116.87      25.94       -14.43      
C           115.62      26.55       -14.78      
C           118.79      24.5        -14.91      
C           118.77      24.95       -13.44      
C           117.57      25.66       -13.19      
C           113.93      26.81       -16.62      
C           114.11      26.58       -18.15      
C           115.36      25.97       -18.34      
C           119.53      24.36       -12.39      
C           119.1       24.7        -11.13      
C           117.92      25.33       -10.85      
C           117.17      25.83       -11.9       
C           113.33      26.81       -19.22      
C           113.76      26.47       -20.52      
C           115.04      25.86       -20.6       
C           115.87      25.57       -19.51      
C           119.99      24.96       -15.77      
C           118.48      22.97       -15.11      
C           113.67      28.3        -16.48      
C           112.78      25.93       -15.84      
H           115.04      27.17       -14.06      
H           117.97      24.96       -17.53      
H           112.36      27.29       -19.14      
H           116.9       25.23       -19.61      
H           120.47      23.79       -12.55      
H           116.17      26.36       -11.75      
H           119.82      24.72       -16.81      
H           120.0       26.01       -15.74      
H           120.96741   24.64836    -15.4017    
H           118.76      22.58       -16.06      
H           119.16      22.44       -14.37      
H           117.42471   22.73016    -14.9798    
H           112.84      26.22       -14.76      
H           111.82      26.12       -16.32      
H           112.99338   24.86999    -15.97766   
H           113.2       28.36       -15.56      
H           113.02      28.76       -17.17      
H           114.55631   28.93411    -16.45838   
H           120.58      23.76       -9.85       
H           112.16      27.11       -21.91      
S           117.54      25.38       -9.13       
C           119.7       24.29       -9.94       
C           119.05      24.58       -8.78       
C           112.82      26.47       -27.17      
C           112.25      27.33       -26.23      
C           113.69      25.59       -26.6       
N           111.46      28.37       -26.49      
N           111.76      28.18       -24.25      
O           111.21      28.89       -25.22      
H           114.65      24.73       -24.95      
H           114.23      24.85       -27.26      
C           113.86      25.43       -25.19      
C           112.51      27.23       -24.8       
C           113.41      26.25       -24.25      
C           115.65      30.63       -42.16      
C           116.3       29.58       -41.62      
S           114.06      30.93       -41.57      
C           113.92      26.77       -36.85      
C           113.11      27.75       -37.44      
C           112.01      28.27       -36.71      
C           111.72      27.89       -35.41      
C           112.58      26.98       -34.81      
C           113.63      26.43       -35.5       
C           110.65      28.4        -34.39      
C           111.12      27.55       -33.15      
C           112.23      26.76       -33.42      
C           115.27      26.58       -37.65      
C           114.97      27.52       -38.8       
C           113.77      28.2        -38.69      
C           110.81      27.81       -31.84      
C           111.62      27.19       -30.79      
C           112.65      26.22       -31.19      
C           112.88      26.0        -32.48      
C           115.84      27.88       -39.77      
C           115.51      28.94       -40.6       
C           114.24      29.61       -40.44      
C           113.31      29.16       -39.57      
C           109.24      27.88       -34.77      
C           110.5       29.89       -33.92      
C           115.33      25.1        -38.26      
C           116.54      26.95       -36.89      
H           114.28      25.75       -34.98      
H           111.56      29.18       -37.15      
H           116.8       27.34       -39.73      
H           112.38      29.65       -39.42      
H           109.99      28.51       -31.56      
H           113.7       25.33       -32.76      
H           108.42      28.43       -34.29      
H           109.17      28.08       -35.86      
H           109.12722   26.82267    -34.53034   
H           109.96      30.44       -34.66      
H           110.06      29.97       -32.92      
H           111.44259   30.4327     -33.99141   
H           117.28      27.18       -37.6       
H           116.51      27.94       -36.37      
H           116.90124   26.26364    -36.12416   
H           115.17      24.37       -37.47      
H           116.33      25.01       -38.79      
H           114.62033   24.97097    -39.0772    
H           111.05      27.99       -28.89      
H           117.35      29.37       -41.92      
S           113.42      25.49       -29.8       
C           111.7       27.33       -29.38      
C           112.56      26.51       -28.66      
C           116.89      33.4        -45.35      
C           117.84      32.85       -44.52      
C           115.6       33.06       -45.01      
N           119.18      32.98       -44.45      
N           118.63      31.52       -42.86      
O           119.65      32.16       -43.48      
H           114.19      31.82       -43.89      
H           114.78      33.47       -45.6       
C           115.22      32.06       -44.05      
C           117.48      31.92       -43.45      
C           116.15      31.56       -43.14      
C           120.3       47.31       -53.72      
C           120.62      47.19       -52.36      
S           119.18      46.08       -54.23      
C           119.0       42.28       -49.18      
C           118.45      42.33       -50.46      
C           117.66      41.32       -51.08      
C           117.54      40.15       -50.29      
C           118.14      40.06       -49.0       
C           118.87      41.09       -48.42      
C           116.55      39.0        -50.49      
C           116.93      38.1        -49.32      
C           117.83      38.71       -48.47      
C           119.87      43.53       -48.91      
C           119.69      44.37       -50.17      
C           118.9       43.57       -51.06      
C           116.45      36.77       -49.07      
C           116.93      36.13       -47.93      
C           117.84      36.76       -47.09      
C           118.22      38.08       -47.25      
C           120.23      45.57       -50.44      
C           120.07      46.06       -51.71      
C           119.17      45.32       -52.65      
C           118.59      44.1        -52.31      
C           117.01      38.1        -51.69      
C           115.08      39.24       -50.41      
C           121.37      43.13       -48.82      
C           119.46      44.31       -47.64      
H           119.27      41.04       -47.45      
H           117.28      41.29       -52.09      
H           120.83      46.17       -49.72      
H           117.91      43.64       -53.01      
H           115.68      36.31       -49.67      
H           118.91      38.55       -46.6       
H           116.99      38.63       -52.62      
H           116.31      37.32       -51.92      
H           118.04468   37.75993    -51.64659   
H           114.93      39.8        -49.53      
H           114.58      38.31       -50.32      
H           114.5752    39.78086    -51.21047   
H           119.36      43.6        -46.88      
H           120.31      44.92       -47.38      
H           118.54492   44.89877    -47.70384   
H           121.58      42.53       -47.89      
H           121.87      44.07       -48.73      
H           121.74406   42.64593    -49.72214   
H           115.72      34.34       -47.93      
H           121.26      47.83       -51.81      
S           118.15      35.76       -45.73      
C           116.48      34.92       -47.4       
C           117.09      34.51       -46.26      
C           121.55      50.36       -56.64      
C           122.38      49.95       -55.55      
C           120.36      49.69       -56.64      
N           123.49      50.44       -55.18      
N           122.84      49.07       -53.52      
O           123.83      49.91       -53.97      
H           119.21      48.01       -55.96      
H           119.67      49.87       -57.44      
C           120.13      48.57       -55.79      
C           121.95      49.05       -54.55      
C           120.83      48.24       -54.69      
C           123.63      63.09       -66.87      
C           122.49      62.35       -66.94      
S           124.99      62.34       -66.1       
C           122.18      56.95       -64.16      
C           123.33      57.72       -63.96      
C           124.3       57.25       -63.08      
C           124.05      56.18       -62.23      
C           122.84      55.5        -62.32      
C           121.92      55.88       -63.28      
C           124.89      55.72       -61.04      
C           124.02      54.49       -60.57      
C           122.77      54.38       -61.3       
C           121.18      57.82       -65.06      
C           122.06      59.01       -65.4       
C           123.38      58.88       -64.83      
C           124.23      53.65       -59.5       
C           123.19      52.83       -59.06      
C           122.0       52.83       -59.83      
C           121.75      53.58       -60.98      
C           121.72      60.04       -66.13      
C           122.6       61.11       -66.27      
C           123.94      60.98       -65.78      
C           124.37      59.84       -65.05      
C           124.73      56.86       -60.03      
C           126.37      55.33       -61.35      
C           119.84      58.31       -64.4       
C           120.95      56.92       -66.32      
H           120.92      55.39       -63.35      
H           125.23      57.88       -62.97      
H           120.69      60.2        -66.47      
H           125.37      59.83       -64.54      
H           125.22      53.72       -58.99      
H           120.81      53.7        -61.44      
H           125.29      57.65       -60.49      
H           123.7       57.0        -59.71      
H           125.24488   56.68122    -59.08605   
H           126.96      56.21       -61.05      
H           126.77      54.56       -60.74      
H           126.56811   54.97623    -62.36178   
H           120.66      57.51       -67.17      
H           121.87      56.43       -66.47      
H           120.18087   56.15087    -66.24944   
H           119.17      57.55       -64.37      
H           119.25      59.05       -64.97      
H           119.92677   58.78722    -63.42387   
H           124.01      51.87       -57.22      
H           121.65      62.84       -67.38      
S           120.86      51.74       -59.08      
C           123.15      51.96       -57.87      
C           121.92      51.35       -57.7       
C           124.21      67.12       -68.66      
C           124.79      66.69       -67.55      
C           123.4       66.12       -69.26      
N           125.65      67.44       -66.83      
N           125.3       65.51       -65.73      
O           126.04      66.64       -65.74      
H           122.61      64.04       -69.3       
H           122.71      66.41       -70.06      
C           123.22      64.78       -68.67      
C           124.55      65.46       -66.82      
C           123.81      64.4        -67.51      
H           28.01       15.09       17.48       
H           124.04      68.18       -68.87      
