612

C           38.68       17.65       11.69       
C           37.35       18.18       11.65       
S           38.74       15.9        11.51       
C           32.63       14.52       11.96       
C           33.81       13.87       11.83       
C           33.93       12.5        12.03       
C           32.82       11.8        12.49       
C           31.65       12.5        12.79       
C           31.55       13.82       12.43       
C           32.78       10.39       13.19       
C           31.29       10.38       13.66       
C           30.74       11.67       13.57       
C           32.78       16.01       11.8        
C           34.24       16.19       11.49       
C           34.8        14.88       11.51       
C           30.61       9.39        14.32       
C           29.32       9.77        14.89       
C           28.84       11.05       14.73       
C           29.54       12.11       14.16       
C           35.04       17.27       11.53       
C           36.4        17.13       11.55       
C           36.97       15.82       11.45       
C           36.16       14.7        11.43       
C           33.59       10.1        14.51       
C           32.92       9.17        12.23       
C           32.44       16.79       13.08       
C           32.08       16.59       10.62       
H           30.66       14.4        12.69       
H           34.83       11.99       11.83       
H           34.74       18.21       11.79       
H           36.65       13.76       11.47       
H           30.97       8.42        14.39       
H           29.17       13.11       14.0        
H           34.61       10.43       14.21       
H           33.64       9.05        14.65       
H           33.28644    10.70712    15.36285    
H           31.99       9.22        11.72       
H           32.95       8.25        12.68       
H           33.76753    9.21461     11.54603    
H           32.32       17.68       10.75       
H           32.52       16.2        9.7         
H           31.01205    16.37641    10.57581    
H           31.34       16.85       13.22       
H           32.71       17.83       12.96       
H           32.90497    16.30323    13.9373     
H           28.48       7.88        15.66       
H           37.12       19.21       11.84       
S           27.29       11.27       15.52       
C           28.36       8.97        15.59       
C           27.26       9.56        15.89       
C           42.2        20.36       12.08       
C           40.99       20.75       11.39       
C           42.15       19.08       12.51       
N           40.71       21.96       10.82       
N           38.97       20.53       10.53       
O           39.45       21.81       10.4        
H           41.22       17.25       12.83       
H           42.93       18.66       13.1        
C           41.06       18.16       12.31       
C           39.86       19.84       11.2        
C           39.87       18.51       11.75       
C           53.44       31.09       18.04       
C           52.7        30.13       18.71       
S           53.09       30.9        16.32       
C           49.3        25.79       16.17       
C           49.69       26.77       15.31       
C           49.24       26.84       14.03       
C           48.42       25.84       13.52       
C           48.1        24.84       14.3        
C           48.38       24.87       15.69       
C           47.74       25.72       12.14       
C           46.92       24.44       12.31       
C           47.21       23.93       13.63       
C           49.82       26.01       17.63       
C           50.7        27.28       17.4        
C           50.65       27.65       16.0        
C           45.96       23.83       11.49       
C           45.08       22.78       12.03       
C           45.36       22.38       13.37       
C           46.43       22.9        14.16       
C           51.4        28.03       18.3        
C           52.03       29.17       17.91       
C           52.1        29.48       16.53       
C           51.5        28.71       15.55       
C           48.71       25.52       10.96       
C           46.77       26.93       12.0        
C           50.69       24.88       18.26       
C           48.76       26.46       18.69       
H           48.11       24.05       16.34       
H           49.54       27.66       13.35       
H           51.36       27.7        19.35       
H           51.43       29.05       14.47       
H           45.86       24.17       10.51       
H           46.49       22.55       15.16       
H           49.23       26.48       10.75       
H           48.18       25.21       10.02       
H           49.5193     24.80219    11.09371    
H           46.1        26.82       12.83       
H           46.14       26.77       11.15       
H           47.21927    27.90697    11.82172    
H           49.2        26.53       19.65       
H           48.33       27.39       18.4        
H           47.91697    25.77227    18.75655    
H           50.95       25.13       19.28       
H           50.12       23.99       18.42       
H           51.57198    24.64337    17.66484    
H           43.54       22.31       10.42       
H           52.69       30.0        19.79       
S           44.11       21.23       13.91       
C           43.93       22.09       11.44       
C           43.39       21.16       12.28       
C           55.88       34.59       19.12       
C           55.02       33.98       20.1        
C           56.1        33.75       18.04       
N           54.71       34.33       21.33       
N           53.27       32.73       20.67       
O           53.56       33.63       21.63       
H           55.42       32.2        16.71       
H           56.74       34.13       17.27       
C           55.25       32.7        17.64       
C           54.12       32.95       19.7        
C           54.2        32.3        18.42       
C           65.49       48.26       19.38       
C           65.4        47.53       18.25       
S           64.39       47.82       20.64       
C           62.02       42.3        18.36       
C           61.91       43.16       19.46       
C           61.03       42.9        20.52       
C           60.32       41.68       20.54       
C           60.17       41.01       19.31       
C           61.02       41.32       18.22       
C           59.55       40.96       21.66       
C           58.91       39.79       20.87       
C           59.21       39.9        19.49       
C           62.84       43.0        17.26       
C           63.16       44.31       17.92       
C           62.73       44.32       19.24       
C           58.07       38.71       21.32       
C           57.59       37.72       20.42       
C           57.96       37.97       19.06       
C           58.76       39.04       18.59       
C           64.06       45.35       17.51       
C           64.45       46.41       18.41       
C           63.83       46.45       19.74       
C           63.04       45.36       20.14       
C           58.45       41.92       22.13       
C           60.51       40.49       22.8        
C           61.88       43.23       16.1        
C           64.09       42.25       16.88       
H           61.02       40.63       17.43       
H           60.97       43.61       21.35       
H           64.45       45.35       16.53       
H           62.68       45.38       21.15       
H           57.89       38.4        22.38       
H           58.96       39.2        17.56       
H           58.99       42.71       22.58       
H           57.96       42.41       21.33       
H           57.71755    41.44391    22.78188    
H           60.83       41.36       23.38       
H           60.0        39.85       23.42       
H           61.30439    39.84758    22.42007    
H           64.15       42.33       15.79       
H           64.99       42.71       17.29       
H           64.13754    41.25156    17.31469    
H           61.53       42.26       15.68       
H           61.04       43.64       16.64       
H           62.12989    43.95112    15.32177    
H           56.62       36.11       21.54       
H           66.0        47.73       17.41       
S           57.36       36.71       18.04       
C           56.94       36.44       20.57       
C           56.65       35.78       19.38       
C           67.36       52.17       19.87       
C           67.66       51.1        20.74       
C           66.42       51.86       18.88       
N           68.59       50.96       21.7        
N           67.53       48.97       21.53       
O           68.47       49.71       22.19       
H           65.01       50.51       18.0        
H           66.1        52.6        18.17       
C           65.82       50.58       18.74       
C           67.04       49.78       20.54       
C           66.21       49.49       19.48       
C           77.25       65.25       18.46       
C           76.39       64.86       17.43       
S           77.24       64.13       19.84       
C           72.63       60.24       18.2        
C           73.58       60.35       19.22       
C           73.57       59.53       20.38       
C           72.58       58.6        20.48       
C           71.62       58.47       19.52       
C           71.59       59.3        18.39       
C           72.49       57.44       21.53       
C           71.22       56.79       21.06       
C           70.83       57.32       19.82       
C           72.94       61.22       17.0        
C           73.95       62.01       17.69       
C           74.36       61.47       18.92       
C           70.55       55.73       21.65       
C           69.52       55.15       20.86       
C           69.21       55.68       19.59       
C           69.77       56.81       19.08       
C           74.57       63.1        17.09       
C           75.63       63.72       17.79       
C           76.0        63.19       19.05       
C           75.39       62.06       19.59       
C           72.43       58.24       22.87       
C           73.76       56.51       21.46       
C           71.64       62.06       16.71       
C           73.39       60.44       15.76       
H           70.86       59.15       17.55       
H           74.33       59.61       21.15       
H           74.18       63.44       16.12       
H           75.75       61.62       20.51       
H           70.97       55.27       22.53       
H           69.55       57.15       18.12       
H           73.3        58.82       23.1        
H           71.59       58.96       22.83       
H           72.2528     57.59252    23.72876    
H           74.61       57.09       21.2        
H           74.02       55.98       22.43       
H           73.62666    55.75209    20.68806    
H           72.65       60.4        14.95       
H           74.27       60.92       15.37       
H           73.77257    59.44982    16.00755    
H           70.85       61.38       16.37       
H           71.84       62.74       15.85       
H           71.37677    62.72163    17.53526    
H           68.87       53.57       22.11       
H           76.24       65.34       16.5        
S           68.04       54.65       18.74       
C           68.69       53.99       21.16       
C           68.01       53.51       20.09       
C           79.9        68.67       19.36       
C           78.99       68.74       18.3        
C           80.01       67.36       19.86       
N           78.58       69.8        17.56       
N           77.26       68.01       17.05       
O           77.52       69.35       16.8        
H           79.33       65.42       20.04       
H           80.72       67.15       20.7        
C           79.19       66.27       19.48       
C           78.13       67.63       17.95       
C           78.18       66.4        18.6        
C           89.58       77.97       29.15       
C           89.81       76.64       28.78       
S           87.95       78.46       28.75       
C           85.94       73.53       25.25       
C           85.47       74.82       25.61       
C           84.36       75.44       25.05       
C           83.69       74.61       24.07       
C           84.26       73.37       23.64       
C           85.29       72.79       24.3        
C           82.34       74.82       23.27       
C           82.39       73.61       22.35       
C           83.42       72.73       22.69       
C           87.38       73.27       25.75       
C           87.57       74.44       26.67       
C           86.51       75.36       26.44       
C           81.45       73.18       21.4        
C           81.32       71.84       21.01       
C           82.37       70.91       21.4        
C           83.4        71.37       22.24       
C           88.66       74.7        27.53       
C           88.71       75.99       28.11       
C           87.6        76.9        27.94       
C           86.52       76.59       27.05       
C           82.48       76.16       22.47       
C           81.15       74.87       24.26       
C           88.44       73.31       24.53       
C           87.4        71.95       26.47       
H           85.71       71.8        23.99       
H           84.07       76.41       25.32       
H           89.44       73.98       27.59       
H           85.92       77.45       26.75       
H           80.67       73.89       21.17       
H           84.2        70.67       22.46       
H           82.71       76.91       23.28       
H           81.48       76.43       22.11       
H           83.23964    76.17461    21.68844    
H           81.01       75.83       24.68       
H           80.36       74.57       23.51       
H           81.28887    74.13913    25.05665    
H           87.88       71.25       25.88       
H           87.94       71.98       27.42       
H           86.40317    71.61772    26.75986    
H           88.09       72.59       23.76       
H           88.34       74.28       24.12       
H           89.47141    73.15529    24.84679    
H           79.5        71.43       19.67       
H           90.77       76.11       28.86       
S           82.19       69.36       20.73       
C           80.39       71.09       20.18       
C           80.69       69.77       20.01       
C           92.33       81.21       30.58       
C           92.68       79.82       30.59       
C           91.06       81.4        30.17       
N           93.85       79.3        30.97       
N           92.47       77.71       30.31       
O           93.72       77.97       30.83       
H           89.33       80.75       29.05       
H           90.67       82.39       30.07       
C           90.19       80.41       29.63       
C           91.8        78.79       30.24       
C           90.46       79.03       29.77       
C           100.28      95.35       33.77       
C           98.99       95.19       33.91       
S           101.03      93.76       33.68       
C           96.21       89.77       33.19       
C           97.56       89.6        33.61       
C           98.15       88.34       33.67       
C           97.37       87.27       33.46       
C           96.01       87.39       33.22       
C           95.35       88.61       33.07       
C           97.73       85.81       33.54       
C           96.5        85.08       32.98       
C           95.44       86.05       32.91       
C           95.74       91.2        33.39       
C           97.08       91.91       33.63       
C           98.12       90.94       33.66       
C           96.26       83.84       32.52       
C           94.94       83.48       32.07       
C           93.97       84.49       32.02       
C           94.17       85.77       32.5        
C           97.22       93.25       33.9        
C           98.52       93.82       34.04       
C           99.58       92.87       33.93       
C           99.43       91.46       33.91       
C           98.14       85.49       34.96       
C           98.9        85.46       32.54       
C           94.77       91.21       34.64       
C           95.04       91.66       32.14       
H           94.3        88.71       32.66       
H           99.23       88.28       33.91       
H           96.33       93.87       33.81       
H           100.3       90.83       33.96       
H           97.0        83.07       32.46       
H           93.4        86.66       32.42       
H           99.17       85.09       35.09       
H           98.14       86.4        35.53       
H           97.46727    84.83174    35.50976    
H           99.79       85.65       33.12       
H           98.81       84.38       32.31       
H           98.83577    86.01667    31.60507    
H           94.13       90.99       32.02       
H           94.75       92.68       32.31       
H           95.60658    91.39053    31.24867    
H           93.95       90.56       34.45       
H           95.38       90.9        35.49       
H           94.32408    92.16554    34.91604    
H           95.16       81.46       31.2        
H           98.27       96.0        33.82       
S           92.49       83.88       31.4        
C           94.49       82.25       31.48       
C           93.2        82.32       31.07       
C           102.42      98.73       31.84       
C           103.13      97.77       32.63       
C           101.03      98.53       31.9        
N           104.48      97.58       32.74       
N           103.34      95.88       33.84       
O           104.57      96.5        33.58       
H           99.28       97.58       32.59       
H           100.36      99.17       31.33       
C           100.36      97.55       32.68       
C           102.44      96.71       33.32       
C           101.0       96.58       33.37       
C           105.83      108.97      19.26       
C           105.07      109.26      20.34       
S           106.67      107.4       19.45       
C           103.78      105.31      24.85       
C           104.88      104.95      24.02       
C           105.51      103.74      24.06       
C           105.18      102.94      25.13       
C           104.21      103.32      26.05       
C           103.4       104.44      25.83       
C           105.86      101.64      25.61       
C           105.13      101.36      26.98       
C           104.13      102.38      27.13       
C           103.22      106.68      24.32       
C           104.13      107.03      23.21       
C           105.1       106.03      22.97       
C           105.27      100.35      27.91       
C           104.43      100.4       29.07       
C           103.41      101.4       29.15       
C           103.24      102.42      28.16       
C           104.14      108.12      22.46       
C           104.99      108.15      21.3        
C           105.79      107.06      20.98       
C           105.9       105.99      21.81       
C           107.37      102.0       25.71       
C           105.58      100.62      24.49       
C           103.18      107.68      25.42       
C           101.82      106.67      23.74       
H           102.59      104.71      26.59       
H           106.32      103.39      23.38       
H           103.49      108.96      22.68       
H           106.65      105.21      21.68       
H           106.04      99.57       27.85       
H           102.39      103.08      28.24       
H           107.93      101.85      24.78       
H           107.37      102.97      26.06       
H           107.91191   101.38166   26.4256     
H           105.89      100.95      23.54       
H           106.02      99.62       24.67       
H           104.52035   100.46561   24.28649    
H           101.12      106.87      24.51       
H           101.7       107.44      22.97       
H           101.63917   105.72969   23.21921    
H           102.54      107.24      26.21       
H           102.63      108.56      25.12       
H           104.16274   107.93123   25.81901    
H           104.69      98.48       30.14       
H           104.43      110.17      20.44       
S           102.37      101.18      30.55       
C           104.21      99.41       30.14       
C           103.04      99.57       30.8        
C           106.53      111.03      15.5        
C           105.95      111.72      16.67       
C           106.93      109.73      15.72       
N           105.45      112.95      16.68       
N           105.21      111.91      18.75       
O           105.23      113.09      18.05       
H           107.01      108.06      16.97       
H           107.46      109.17      14.98       
C           106.73      109.11      16.99       
C           105.73      111.08      17.89       
C           106.11      109.74      18.07       
C           109.33      119.13      1.27        
C           110.36      118.35      1.82        
S           108.02      119.21      2.45        
C           109.66      115.15      6.95        
C           108.66      116.09      6.69        
C           107.46      116.29      7.42        
C           107.36      115.54      8.53        
C           108.31      114.52      8.83        
C           109.42      114.27      7.97        
C           106.1       115.54      9.37        
C           106.51      114.51      10.41       
C           107.69      113.79      9.97        
C           110.76      115.08      5.89        
C           110.32      116.38      5.13        
C           109.05      116.79      5.52        
C           105.92      114.23      11.63       
C           106.39      113.09      12.4        
C           107.44      112.35      11.88       
C           108.17      112.75      10.72       
C           110.8       116.77      3.86        
C           110.02      117.69      3.07        
C           108.82      118.15      3.58        
C           108.27      117.66      4.77        
C           104.76      115.23      8.53        
C           106.08      116.97      9.97        
C           110.79      113.86      5.02        
C           112.1       115.28      6.54        
H           110.17      113.59      8.25        
H           106.64      116.95      7.2         
H           111.72      116.35      3.44        
H           107.3       117.93      5.1         
H           105.07      114.73      11.95       
H           109.12      112.19      10.51       
H           104.6       115.84      7.65        
H           104.86      114.18      8.2         
H           103.87151   115.31011   9.15631     
H           105.66      117.77      9.27        
H           105.44      116.96      10.8        
H           107.06165   117.28299   10.32567    
H           112.41      114.34      6.92        
H           112.89      115.7       5.94        
H           112.08618   116.03322   7.32777     
H           110.85      112.97      5.6         
H           111.57      113.89      4.25        
H           109.87716   113.77375   4.43061     
H           105.09      113.01      14.08       
H           111.27      118.14      1.28        
S           107.81      111.02      12.99       
C           105.92      112.52      13.57       
C           106.65      111.57      14.14       
C           109.62      121.51      -2.51       
C           108.41      121.33      -1.75       
C           110.64      120.8       -1.82       
N           107.18      121.77      -1.98       
N           107.04      120.37      -0.22       
O           106.35      121.22      -1.07       
H           111.47      119.52      -0.43       
H           111.7       120.88      -2.22       
C           110.52      120.01      -0.66       
C           108.29      120.46      -0.55       
C           109.37      119.79      0.03        
C           109.8       125.16      -18.4       
C           110.72      124.26      -17.82      
S           108.57      125.76      -17.21      
C           111.14      123.92      -11.77      
C           109.94      124.55      -12.21      
C           109.01      125.1       -11.34      
C           109.32      125.13      -9.97       
C           110.49      124.41      -9.51       
C           111.37      123.82      -10.47      
C           108.39      125.57      -8.84       
C           109.18      124.88      -7.67       
C           110.45      124.31      -8.06       
C           111.86      123.04      -12.84      
C           111.05      123.63      -14.05      
C           110.02      124.52      -13.68      
C           108.87      124.83      -6.34       
C           109.49      123.86      -5.49       
C           110.7       123.29      -5.95       
C           111.26      123.55      -7.2        
C           111.2       123.35      -15.41      
C           110.49      124.09      -16.39      
C           109.43      124.9       -15.96      
C           109.14      125.04      -14.61      
C           106.98      125.05      -9.01       
C           108.38      127.11      -8.63       
C           111.76      121.5       -12.61      
C           113.37      123.34      -12.9       
H           112.22      123.19      -10.17      
H           108.19      125.65      -11.61      
H           112.1       122.84      -15.72      
H           108.3       125.68      -14.46      
H           107.93      125.28      -5.95       
H           112.14      123.12      -7.61       
H           106.62      125.28      -9.96       
H           106.3       125.61      -8.31       
H           106.92355   123.96332   -8.94649    
H           109.37      127.41      -8.21       
H           107.74      127.41      -7.86       
H           108.11684   127.67189   -9.52617    
H           113.75      122.89      -11.92      
H           113.72      122.91      -13.86      
H           113.52431   124.41317   -13.01223   
H           112.02      121.19      -11.62      
H           112.51      120.99      -13.24      
H           110.74181   121.1631    -12.80465   
H           107.91      123.33      -3.94       
H           111.49      123.77      -18.37      
S           111.27      122.21      -4.73       
C           108.92      123.22      -4.28       
C           109.85      122.35      -3.75       
C           108.85      126.14      -22.66      
C           109.55      124.98      -22.22      
C           108.46      126.87      -21.61      
N           110.18      124.05      -22.94      
N           110.28      123.31      -20.85      
O           110.54      123.02      -22.14      
H           108.47      127.13      -19.43      
H           107.87      127.79      -21.71      
C           108.88      126.56      -20.21      
C           109.75      124.57      -20.82      
C           109.52      125.39      -19.79      
C           106.48      135.62      -36.18      
C           105.77      135.58      -35.07      
S           107.6       134.23      -36.19      
C           106.22      131.34      -30.51      
C           107.21      131.29      -31.48      
C           108.28      130.37      -31.34      
C           108.41      129.66      -30.19      
C           107.47      129.83      -29.19      
C           106.33      130.62      -29.36      
C           109.65      128.99      -29.68      
C           109.14      128.51      -28.3       
C           107.92      129.11      -27.98      
C           105.13      132.31      -31.02      
C           105.73      132.95      -32.3       
C           106.86      132.28      -32.65      
C           109.8       127.73      -27.33      
C           109.04      127.4       -26.22      
C           107.86      128.13      -25.86      
C           107.29      129.0       -26.78      
C           105.27      133.97      -33.12      
C           105.95      134.41      -34.26      
C           106.99      133.62      -34.69      
C           107.49      132.53      -33.89      
C           110.87      129.97      -29.61      
C           110.05      127.65      -30.42      
C           104.91      133.49      -29.99      
C           103.79      131.67      -31.29      
H           105.57      130.69      -28.62      
H           109.03      130.31      -32.17      
H           104.37      134.52      -32.85      
H           108.36      131.96      -34.18      
H           110.68      127.21      -27.53      
H           106.39      129.55      -26.55      
H           111.78      129.32      -29.54      
H           111.15      130.41      -30.54      
H           110.7453    130.71817   -28.82719   
H           110.29      127.94      -31.44      
H           110.94      127.12      -29.94      
H           109.20359   126.9701    -30.51713   
H           103.11      131.79      -30.47      
H           103.38      132.12      -32.16      
H           103.81107   130.5884    -31.42344   
H           104.25      133.14      -29.24      
H           104.35      134.36      -30.48      
H           105.79654   134.03057   -29.65845   
H           110.26      125.86      -25.1       
H           105.13      136.38      -34.77      
S           107.26      127.75      -24.25      
C           109.37      126.51      -25.12      
C           108.6       126.65      -24.03      
C           106.49      138.56      -39.48      
C           106.05      138.9       -38.18      
C           106.86      137.23      -39.62      
N           105.67      140.07      -37.78      
N           105.28      138.55      -36.13      
O           105.21      139.82      -36.5       
H           107.31      135.31      -38.61      
H           107.15      136.99      -40.61      
C           106.91      136.31      -38.49      
C           105.9       137.96      -37.15      
C           106.44      136.64      -37.27      
H           26.38       9.06        16.31       
H           106.67      139.36      -40.25      
