612

C           46.54       19.72       7.75        
C           46.08       19.21       6.56        
S           45.83       18.86       9.05        
C           42.2        14.55       6.14        
C           42.62       14.88       7.45        
C           42.07       14.27       8.55        
C           40.96       13.42       8.39        
C           40.52       13.13       7.09        
C           41.16       13.58       5.98        
C           39.95       12.89       9.39        
C           39.06       11.98       8.54        
C           39.44       12.21       7.15        
C           43.0        15.33       5.1         
C           43.78       16.31       5.98        
C           43.56       15.98       7.33        
C           37.98       11.2        8.9         
C           37.21       10.6        7.84        
C           37.6        10.82       6.52        
C           38.69       11.62       6.21        
C           44.6        17.29       5.63        
C           45.22       18.05       6.65        
C           44.96       17.76       7.97        
C           44.1        16.71       8.37        
C           38.97       13.92       10.07       
C           40.51       11.81       10.42       
C           42.06       16.05       4.1         
C           44.09       14.47       4.31        
H           40.83       13.42       4.94        
H           42.34       14.65       9.55        
H           44.73       17.54       4.56        
H           43.94       16.54       9.38        
H           37.65       11.05       9.92        
H           38.83       11.8        5.17        
H           39.53       14.52       10.83       
H           38.18       13.32       10.63       
H           38.4447     14.52935    9.33458     
H           40.61       10.84       9.88        
H           39.89       11.56       11.19       
H           41.53456    12.02754    10.72175    
H           44.41       15.01       3.46        
H           45.02       14.45       4.86        
H           43.73636    13.51516    3.92099     
H           41.47       15.39       3.53        
H           42.64       16.53       3.33        
H           41.29748    16.70255    4.52525     
H           35.44       9.71        8.81        
H           46.57       19.53       5.65        
S           36.45       10.07       5.44        
C           35.95       9.89        7.9         
C           35.36       9.62        6.71        
C           49.54       22.91       8.68        
C           49.55       22.3        7.43        
C           48.55       22.53       9.51        
N           50.32       22.48       6.35        
N           48.84       20.84       5.82        
O           49.81       21.63       5.36        
H           46.96       21.26       10.05       
H           48.63       22.86       10.44       
C           47.58       21.5        9.2         
C           48.54       21.25       7.07        
C           47.55       20.79       8.03        
C           57.56       36.74       12.94       
C           56.51       36.17       13.62       
S           57.93       35.89       11.52       
C           54.02       30.94       11.92       
C           55.14       31.23       11.17       
C           55.48       30.41       10.05       
C           54.86       29.21       9.89        
C           53.91       28.81       10.83       
C           53.49       29.69       11.86       
C           55.07       28.08       8.86        
C           54.14       27.0        9.37        
C           53.34       27.55       10.4        
C           53.76       31.84       13.14       
C           54.85       32.88       12.82       
C           55.59       32.52       11.67       
C           53.77       25.84       8.78        
C           52.49       25.23       9.04        
C           51.77       25.78       10.11       
C           52.21       26.98       10.84       
C           55.12       34.04       13.6        
C           56.16       34.87       13.13       
C           56.83       34.6        11.9        
C           56.6        33.39       11.17       
C           56.5        27.47       8.83        
C           54.58       28.46       7.5         
C           54.09       31.09       14.41       
C           52.36       32.43       13.27       
H           52.8        29.47       12.72       
H           56.34       30.78       9.37        
H           54.67       34.32       14.48       
H           57.23       33.18       10.3        
H           54.36       25.38       8.0         
H           51.7        27.29       11.72       
H           57.36       28.08       8.54        
H           56.44       26.63       8.2         
H           56.7942     27.01793    9.77719     
H           53.59       28.94       7.46        
H           54.57       27.59       6.89        
H           55.18028    29.21035    6.98547     
H           51.69       31.62       13.6        
H           52.4        33.22       14.02       
H           52.02552    32.96374    12.38043    
H           53.9        31.71       15.25       
H           53.54       30.16       14.59       
H           55.15231    30.85238    14.46591    
H           52.16       23.63       7.6         
H           56.18       36.58       14.52       
S           50.25       24.98       10.36       
C           51.75       24.2        8.42        
C           50.59       23.88       9.08        
C           59.7        40.54       13.71       
C           58.94       39.94       14.7        
C           59.63       39.87       12.46       
N           58.65       40.4        15.88       
N           57.54       38.44       15.6        
O           57.85       39.45       16.48       
H           58.94       38.29       11.29       
H           60.1        40.39       11.6        
C           58.88       38.71       12.25       
C           58.2        38.66       14.47       
C           58.28       38.02       13.23       
C           70.57       53.08       13.33       
C           69.75       52.72       12.27       
S           69.93       52.15       14.73       
C           65.69       48.25       12.35       
C           66.13       48.69       13.62       
C           65.72       48.07       14.79       
C           64.89       46.98       14.75       
C           64.34       46.56       13.52       
C           64.71       47.18       12.3        
C           64.26       46.2        15.88       
C           63.46       45.15       15.09       
C           63.46       45.4        13.7        
C           66.2        49.05       11.18       
C           67.1        50.01       11.92       
C           67.02       49.75       13.32       
C           62.7        44.18       15.65       
C           61.94       43.38       14.79       
C           61.97       43.66       13.46       
C           62.74       44.61       12.82       
C           68.03       50.93       11.44       
C           68.84       51.61       12.43       
C           68.76       51.3        13.8        
C           67.84       50.41       14.26       
C           63.52       47.2        16.81       
C           65.33       45.49       16.76       
C           65.03       49.8        10.47       
C           67.1        48.35       10.16       
H           64.36       46.8        11.3        
H           66.17       48.36       15.67       
H           68.11       51.23       10.4        
H           67.88       50.15       15.38       
H           62.67       43.93       16.72       
H           62.78       44.62       11.71       
H           63.61       46.95       17.89       
H           64.04       48.12       16.82       
H           62.51015    47.49364    16.52352    
H           66.11       46.23       17.15       
H           64.91       44.96       17.64       
H           65.97615    44.85119    16.15791    
H           67.17       49.03       9.3         
H           68.2        48.13       10.46       
H           66.7956     47.38726    9.74942     
H           65.12       49.72       9.35        
H           64.05       49.22       10.61       
H           64.86391    50.81038    10.8437     
H           61.23       41.71       16.05       
H           69.8        53.35       11.32       
S           61.16       42.42       12.51       
C           61.26       42.2        15.03       
C           60.62       41.68       13.95       
C           73.22       56.58       14.21       
C           72.37       56.56       13.05       
C           73.05       55.48       14.99       
N           72.15       57.49       12.11       
N           70.65       55.85       11.8        
O           71.15       56.97       11.31       
H           72.34       53.43       15.27       
H           73.64       55.38       15.91       
C           72.27       54.3        14.59       
C           71.44       55.47       12.78       
C           71.42       54.23       13.52       
C           79.91       70.8        20.05       
C           78.51       70.78       19.85       
S           80.56       69.17       19.76       
C           75.75       65.68       17.74       
C           77.16       65.64       17.84       
C           77.85       64.45       17.69       
C           77.22       63.34       17.21       
C           75.83       63.37       16.99       
C           75.08       64.61       17.2        
C           77.89       61.97       16.96       
C           76.7        61.1        16.53       
C           75.57       61.97       16.52       
C           75.19       67.02       18.18       
C           76.47       67.77       18.56       
C           77.58       66.89       18.4        
C           76.64       59.77       16.26       
C           75.39       59.29       15.77       
C           74.26       60.17       15.66       
C           74.39       61.54       16.08       
C           76.7        69.05       19.12       
C           78.02       69.5        19.43       
C           79.05       68.52       19.36       
C           78.86       67.24       18.81       
C           78.51       61.69       18.35       
C           78.92       62.06       15.88       
C           74.26       66.85       19.39       
C           74.41       67.76       17.06       
H           74.06       64.57       17.01       
H           78.95       64.49       17.67       
H           75.81       69.69       19.26       
H           79.71       66.58       18.67       
H           77.46       59.12       16.35       
H           73.5        62.15       16.0        
H           79.42       62.3        18.34       
H           77.81       62.19       19.06       
H           78.48111    60.65702    18.69673    
H           79.57       62.8        16.3        
H           79.53       61.2        15.83       
H           78.48778    62.27257    14.90219    
H           73.43       67.99       17.37       
H           75.03       68.68       16.84       
H           74.5005     67.29241    16.07956    
H           73.59       66.03       19.33       
H           73.74       67.75       19.6        
H           74.782      66.4672     20.26697    
H           75.73       57.15       15.25       
H           77.88       71.6        20.09       
S           72.9        59.34       14.94       
C           75.02       57.94       15.35       
C           73.81       57.83       14.75       
C           82.26       74.3        21.54       
C           82.88       73.12       21.0        
C           80.89       74.15       21.53       
N           84.13       72.83       20.95       
N           83.02       71.13       20.0        
O           84.24       71.64       20.29       
H           79.06       73.1        21.1        
H           80.32       74.91       22.02       
C           80.13       73.01       21.1        
C           82.18       71.97       20.45       
C           80.74       71.88       20.48       
C           88.57       87.27       29.23       
C           87.3        86.91       29.19       
S           89.51       86.3        28.12       
C           84.92       82.83       25.49       
C           86.32       82.92       25.35       
C           87.04       82.22       24.47       
C           86.42       81.14       23.85       
C           85.02       80.97       24.03       
C           84.23       81.87       24.75       
C           86.99       80.05       22.94       
C           85.75       79.21       22.79       
C           84.57       79.67       23.46       
C           84.31       83.76       26.58       
C           85.59       84.34       27.05       
C           86.76       83.88       26.37       
C           85.63       77.9        22.24       
C           84.47       77.2        22.31       
C           83.3        77.78       22.94       
C           83.29       79.01       23.49       
C           85.63       85.38       27.98       
C           86.89       85.86       28.34       
C           88.09       85.41       27.69       
C           88.07       84.43       26.69       
C           88.04       79.18       23.63       
C           87.52       80.67       21.58       
C           83.55       82.92       27.73       
C           83.43       84.93       26.14       
H           83.19       81.65       24.96       
H           88.14       82.32       24.47       
H           84.82       85.85       28.53       
H           88.99       84.04       26.3        
H           86.45       77.54       21.6        
H           82.4        79.52       24.04       
H           88.88       79.81       23.9        
H           88.36       78.43       22.97       
H           87.68379    78.65617    24.51703    
H           88.29       81.43       21.83       
H           88.05       79.91       21.05       
H           86.67225    81.07998    21.03105    
H           82.82       85.32       26.98       
H           84.06       85.69       25.8        
H           82.69156    84.60099    25.40887    
H           82.53       82.66       27.45       
H           84.04       81.92       27.7        
H           83.62731    83.23629    28.77023    
H           84.94       75.25       21.42       
H           86.54       87.53       29.68       
S           81.89       76.68       22.8        
C           84.2        75.84       21.85       
C           82.9        75.46       22.01       
C           90.79       90.62       31.2        
C           89.5        90.22       31.57       
C           91.35       89.72       30.3        
N           88.73       90.75       32.47       
N           87.54       89.13       31.41       
O           87.53       90.1        32.39       
H           91.24       88.09       28.96       
H           92.46       89.82       30.11       
C           90.65       88.61       29.68       
C           88.76       89.21       30.87       
C           89.32       88.32       29.88       
C           95.97       106.23      30.6        
C           94.73       105.89      31.0        
S           97.04       104.91      30.66       
C           93.06       100.1       31.64       
C           94.43       100.34      31.37       
C           95.29       99.25       31.21       
C           94.71       97.96       31.3        
C           93.35       97.76       31.46       
C           92.5        98.8        31.69       
C           95.42       96.61       31.16       
C           94.3        95.59       31.31       
C           93.02       96.33       31.47       
C           92.25       101.43      31.8        
C           93.45       102.39      31.75       
C           94.63       101.74      31.34       
C           94.29       94.2        31.36       
C           93.06       93.55       31.47       
C           91.82       94.32       31.71       
C           91.85       95.71       31.76       
C           93.44       103.8       31.73       
C           94.51       104.53      31.31       
C           95.73       103.8       31.05       
C           95.83       102.42      31.06       
C           96.53       96.55       32.22       
C           96.04       96.6        29.71       
C           91.45       101.38      33.14       
C           91.37       101.67      30.55       
H           91.46       98.65       31.87       
H           96.33       99.42       30.99       
H           92.58       104.42      32.03       
H           96.73       101.83      30.82       
H           95.22       93.64       31.28       
H           90.91       96.23       31.93       
H           97.14       97.48       32.22       
H           96.07       96.4        33.21       
H           97.21234    95.70796    32.10386    
H           96.66       97.49       29.58       
H           96.55       95.7        29.35       
H           95.27272    96.70329    28.94272    
H           91.12       102.68      30.62       
H           91.91       101.42      29.66       
H           90.46422    101.06614   30.4951     
H           90.76       100.58      33.23       
H           92.03       101.21      34.05       
H           90.90329    102.3052    33.32224    
H           93.49       91.36       31.34       
H           93.95       106.63      31.04       
S           90.46       93.27       31.98       
C           92.75       92.17       31.47       
C           91.44       91.86       31.68       
C           97.7        109.98      29.1        
C           96.43       110.01      29.81       
C           98.19       108.68      28.76       
N           95.69       110.98      30.23       
N           94.53       109.09      30.69       
O           94.54       110.43      30.6        
H           98.01       106.55      29.1        
H           99.06       108.47      28.16       
C           97.57       107.5       29.34       
C           95.77       108.8       30.29       
C           96.46       107.52      30.14       
C           104.03      122.33      20.32       
C           102.72      122.15      20.68       
S           104.95      121.03      21.09       
C           100.58      117.8       24.3        
C           101.94      117.82      24.08       
C           102.79      116.85      24.71       
C           102.17      115.91      25.54       
C           100.82      116.03      25.84       
C           100.02      117.01      25.2        
C           102.75      114.7       26.35       
C           101.46      114.1       26.88       
C           100.34      115.03      26.68       
C           99.85       118.9       23.45       
C           101.1       119.56      22.85       
C           102.25      118.86      23.16       
C           101.28      112.9       27.45       
C           100.01      112.48      27.72       
C           98.91       113.4       27.58       
C           99.01       114.69      27.04       
C           101.2       120.64      21.92       
C           102.46      121.08      21.51       
C           103.59      120.29      21.83       
C           103.53      119.17      22.65       
C           103.66      115.31      27.45       
C           103.52      113.78      25.33       
C           99.12       119.84      24.46       
C           98.91       118.49      22.37       
H           98.97       117.2       25.51       
H           103.89      116.81      24.56       
H           100.35      121.06      21.49       
H           104.39      118.54      22.92       
H           102.06      112.22      27.58       
H           98.1        115.29      26.85       
H           104.55      115.78      27.07       
H           102.91      115.99      27.93       
H           103.96414   114.54273   28.16197    
H           104.31      114.37      24.86       
H           103.86      112.86      25.73       
H           102.8897    113.50294   24.48498    
H           98.02       118.12      22.78       
H           98.71       119.45      21.98       
H           99.37494    117.86303   21.60918    
H           98.31       119.37      25.02       
H           98.73       120.62      23.79       
H           99.84962    120.26919   25.1467     
H           100.27      110.42      28.48       
H           101.9       122.76      20.18       
S           97.51       112.62      28.15       
C           99.64       111.26      28.35       
C           98.36       111.18      28.69       
C           105.5       124.83      16.87       
C           106.33      124.14      17.86       
C           104.2       124.43      17.1        
N           107.66      124.12      17.8        
N           106.91      122.82      19.51       
O           107.96      123.44      18.95       
H           102.7       123.4       18.15       
H           103.45      124.7       16.36       
C           103.76      123.61      18.17       
C           105.83      123.34      18.99       
C           104.44      123.14      19.26       
C           109.86      130.32      1.79        
C           108.7       129.75      2.07        
S           110.91      130.48      3.18        
C           107.0       128.47      7.92        
C           108.37      128.89      7.77        
C           109.2       129.01      8.85        
C           108.7       128.73      10.13       
C           107.39      128.15      10.25       
C           106.55      128.05      9.15        
C           109.37      128.72      11.49       
C           108.37      127.96      12.37       
C           107.14      127.79      11.63       
C           106.42      128.23      6.49        
C           107.48      128.85      5.52        
C           108.62      129.22      6.3         
C           108.44      127.48      13.68       
C           107.3       126.92      14.31       
C           106.09      126.9       13.57       
C           106.03      127.21      12.22       
C           107.49      128.89      4.13        
C           108.58      129.39      3.48        
C           109.66      129.93      4.27        
C           109.7       129.79      5.63        
C           109.55      130.21      11.94       
C           110.74      127.99      11.38       
C           105.09      129.0       6.37        
C           106.19      126.75      6.11        
H           105.53      127.69      9.31        
H           110.24      129.34      8.66        
H           106.64      128.56      3.55        
H           110.61      130.09      6.1         
H           109.38      127.45      14.19       
H           105.12      126.98      11.59       
H           109.89      130.3       13.01       
H           110.32      130.62      11.33       
H           108.6628    130.83586   11.84371    
H           111.2       128.42      10.48       
H           111.41      128.31      12.21       
H           110.53241   126.9234    11.2941     
H           105.16      126.46      6.46        
H           106.19      126.71      4.98        
H           106.96159   126.09712   6.51805     
H           104.41      128.68      7.13        
H           104.55      128.89      5.41        
H           105.28353   130.06798   6.47035     
H           108.0       126.1       16.28       
H           107.95      129.51      1.34        
S           104.78      126.18      14.51       
C           107.19      126.22      15.58       
C           105.93      125.68      15.79       
C           111.38      132.05      -2.09       
C           110.0       131.51      -1.88       
C           112.09      131.92      -0.93       
N           109.01      131.56      -2.71       
N           108.24      130.66      -0.81       
O           107.88      131.16      -2.06       
H           112.26      131.47      1.21        
H           113.1       132.29      -0.79       
C           111.59      131.41      0.31        
C           109.56      130.92      -0.67       
C           110.35      130.83      0.5         
C           120.21      140.67      -13.01      
C           120.35      140.7       -11.63      
S           118.77      139.78      -13.48      
C           116.62      137.8       -7.82       
C           116.23      137.77      -9.19       
C           114.98      137.2       -9.67       
C           114.29      136.51      -8.65       
C           114.79      136.51      -7.29       
C           115.93      137.21      -6.83       
C           112.97      135.64      -8.76       
C           112.89      135.14      -7.29       
C           113.97      135.7       -6.49       
C           117.77      138.81      -7.6        
C           118.22      138.99      -9.04       
C           117.26      138.44      -9.99       
C           112.0       134.25      -6.69       
C           112.13      133.91      -5.29       
C           113.22      134.47      -4.58       
C           114.06      135.42      -5.13       
C           119.22      139.72      -9.48       
C           119.38      139.94      -10.89      
C           118.43      139.43      -11.76      
C           117.28      138.71      -11.31      
C           113.09      134.47      -9.86       
C           111.66      136.48      -8.96       
C           118.9       138.19      -6.71       
C           117.38      140.17      -6.96       
H           116.35      137.03      -5.9        
H           114.64      137.11      -10.73      
H           119.84      140.22      -8.72       
H           116.47      138.37      -11.98      
H           111.18      133.75      -7.25       
H           115.04      135.59      -4.74       
H           113.23      135.0       -10.9       
H           112.13      133.92      -10.03      
H           114.00338   133.88487   -9.75296    
H           111.37      136.9       -8.04       
H           110.72      135.93      -9.2        
H           111.76406   137.21537   -9.75781    
H           117.2       140.04      -5.87       
H           118.31      140.83      -7.01       
H           116.58352   140.66437   -7.51616    
H           118.47      138.05      -5.73       
H           119.84      138.82      -6.6        
H           119.20764   137.23779   -7.14216    
H           110.47      132.54      -4.82       
H           121.25      141.1       -11.16      
S           113.35      133.77      -2.96       
C           111.33      133.09      -4.43       
C           111.92      132.8       -3.2        
C           122.86      142.41      -16.05      
C           122.33      141.08      -16.13      
C           122.32      143.07      -14.98      
N           122.51      140.21      -17.08      
N           121.25      139.3       -15.45      
O           121.93      139.1       -16.62      
H           121.27      143.16      -13.16      
H           122.61      144.07      -14.91      
C           121.53      142.5       -13.93      
C           121.44      140.54      -15.16      
C           121.01      141.26      -14.0       
C           133.84      150.21      -25.55      
C           133.64      150.55      -24.26      
S           132.84      148.78      -26.06      
C           130.04      147.44      -20.57      
C           130.08      146.98      -21.88      
C           129.48      145.79      -22.32      
C           128.58      145.21      -21.48      
C           128.44      145.73      -20.12      
C           129.13      146.78      -19.67      
C           127.79      143.98      -21.71      
C           126.92      143.99      -20.42      
C           127.4       144.93      -19.49      
C           130.61      148.82      -20.54      
C           131.32      148.85      -21.84      
C           130.89      147.84      -22.69      
C           125.78      143.26      -20.12      
C           125.17      143.36      -18.81      
C           125.81      144.28      -17.91      
C           126.94      145.09      -18.2       
C           132.2       149.82      -22.32      
C           132.68      149.72      -23.63      
C           132.18      148.69      -24.45      
C           131.31      147.69      -23.99      
C           128.86      142.82      -21.86      
C           126.99      144.12      -23.04      
C           131.56      149.0       -19.29      
C           129.51      149.86      -20.64      
H           129.06      147.17      -18.64      
H           129.6       145.42      -23.3       
H           132.58      150.66      -21.71      
H           131.05      146.74      -24.52      
H           125.39      142.59      -20.81      
H           127.39      145.82      -17.5       
H           129.39      142.83      -22.8       
H           129.61      143.11      -21.08      
H           128.48261   141.82313   -21.63214   
H           127.52      144.14      -24.02      
H           126.4       143.19      -23.06      
H           126.21932   144.89068   -23.02546   
H           130.03      150.83      -20.75      
H           128.88      149.7       -21.56      
H           128.89266   149.90307   -19.74271   
H           130.96      148.89      -18.39      
H           132.05      150.01      -19.16      
H           132.31639   148.22179   -19.18818   
H           123.36      142.02      -18.73      
H           134.22      151.32      -23.81      
S           125.01      144.07      -16.37      
C           123.96      142.79      -18.27      
C           123.7       143.11      -17.04      
C           136.65      151.57      -28.67      
C           136.58      152.25      -27.43      
C           135.82      150.56      -28.72      
N           137.29      153.27      -26.99      
N           135.95      152.55      -25.34      
O           136.92      153.43      -25.71      
H           134.25      149.33      -27.96      
H           135.85      150.02      -29.64      
C           134.9       150.15      -27.73      
C           135.66      151.89      -26.4       
C           134.76      150.78      -26.54      
H           34.35       9.32        6.64        
H           137.38      151.77      -29.45      
