612

C           28.14       11.14       20.2        
C           27.22       11.8        21.04       
S           28.3        9.49        20.69       
C           24.61       8.99        25.93       
C           25.37       8.15        25.11       
C           25.21       6.73        25.19       
C           24.34       6.21        26.21       
C           23.69       7.09        27.07       
C           23.75       8.45        26.84       
C           24.0        4.73        26.51       
C           22.99       4.97        27.69       
C           22.81       6.32        27.98       
C           24.72       10.46       25.43       
C           25.58       10.33       24.19       
C           26.0        8.98        24.04       
C           22.3        4.01        28.36       
C           21.43       4.39        29.37       
C           21.19       5.75        29.59       
C           21.83       6.74        28.89       
C           25.95       11.28       23.26       
C           26.81       10.98       22.18       
C           27.19       9.67        22.04       
C           26.84       8.64        22.95       
C           25.16       3.9         27.04       
C           23.23       3.97        25.45       
C           25.39       11.31       26.48       
C           23.24       11.09       25.19       
H           23.22       9.21        27.37       
H           25.78       6.04        24.51       
H           25.52       12.32       23.25       
H           27.15       7.61        22.76       
H           22.53       2.94        28.17       
H           21.71       7.85        29.13       
H           25.94       3.61        26.39       
H           24.68       2.94        27.29       
H           25.64977    4.22884     27.95656    
H           22.46       4.66        25.05       
H           22.68       3.11        25.9        
H           23.81914    3.62816     24.59902    
H           22.75       11.22       26.13       
H           23.27       12.1        24.82       
H           22.6506     10.44166    24.54166    
H           24.87       11.28       27.43       
H           25.3        12.27       25.95       
H           26.42851    11.05567    26.69194    
H           20.54       2.42        30.07       
H           26.93       12.82       20.92       
S           20.02       5.86        30.84       
C           20.58       3.49        30.14       
C           19.83       4.15        31.1        
C           30.91       12.72       17.13       
C           29.74       13.46       17.54       
C           30.95       11.51       17.81       
N           29.38       14.67       17.26       
N           27.93       13.93       18.93       
O           28.32       14.98       18.14       
H           30.31       10.02       19.24       
H           31.81       10.98       17.65       
C           30.0        10.94       18.72       
C           28.83       12.99       18.58       
C           28.96       11.66       19.17       
C           44.95       19.75       11.7        
C           44.9        18.37       12.02       
S           43.31       20.43       11.71       
C           39.72       15.52       13.59       
C           39.6        16.86       13.15       
C           38.35       17.44       12.94       
C           37.19       16.74       13.37       
C           37.37       15.46       13.98       
C           38.59       14.83       14.03       
C           35.74       17.33       13.52       
C           35.15       16.11       14.16       
C           36.03       15.03       14.27       
C           41.18       15.07       13.53       
C           41.78       16.35       12.98       
C           40.9        17.41       12.87       
C           33.81       15.98       14.58       
C           33.36       14.8        15.16       
C           34.23       13.78       15.22       
C           35.56       13.83       14.85       
C           43.13       16.61       12.59       
C           43.57       17.9        12.26       
C           42.59       18.94       12.18       
C           41.2        18.68       12.44       
C           35.13       17.93       12.23       
C           35.45       18.31       14.74       
C           41.21       13.83       12.59       
C           41.6        14.67       15.01       
H           38.58       13.78       14.4        
H           38.21       18.43       12.55       
H           43.82       15.77       12.66       
H           40.46       19.51       12.32       
H           33.07       16.79       14.44       
H           36.21       13.06       15.25       
H           35.53       18.94       12.07       
H           34.05       18.13       12.47       
H           35.14432    17.27835    11.35636    
H           35.3        17.77       15.71       
H           34.5        18.78       14.78       
H           36.14752    19.13745    14.86993    
H           40.85       13.99       15.37       
H           42.56       14.12       14.81       
H           41.6072     15.51263    15.70139    
H           41.96       13.14       12.82       
H           40.46       13.17       13.03       
H           41.02933    14.1427     11.56157    
H           31.24       15.23       15.7        
H           45.78       17.77       12.09       
S           33.52       12.44       16.17       
C           32.08       14.54       15.74       
C           31.98       13.31       16.27       
C           48.39       22.43       11.2        
C           48.48       21.17       11.92       
C           47.12       22.77       10.83       
N           49.53       20.6        12.32       
N           47.77       19.26       12.63       
O           49.11       19.5        12.8        
H           45.01       22.32       10.59       
H           47.05       23.7        10.28       
C           45.97       21.94       11.01       
C           47.4        20.36       12.04       
C           46.09       20.69       11.54       
C           62.75       29.38       7.27        
C           62.5        28.83       8.51        
S           61.27       29.69       6.4         
C           56.93       27.3        10.15       
C           56.93       28.05       8.96        
C           55.73       28.27       8.23        
C           54.57       27.67       8.64        
C           54.67       26.76       9.73        
C           55.83       26.68       10.54       
C           53.17       27.57       8.0         
C           52.5        26.47       8.85        
C           53.46       26.02       9.84        
C           58.2        27.4        10.93       
C           59.06       28.06       9.83        
C           58.32       28.34       8.68        
C           51.25       25.92       8.82        
C           50.82       24.9        9.73        
C           51.88       24.39       10.52       
C           53.13       25.01       10.73       
C           60.39       28.25       9.86        
C           61.08       28.68       8.75        
C           60.27       29.03       7.63        
C           58.93       28.86       7.58        
C           53.3        27.19       6.49        
C           52.28       28.86       8.03        
C           58.84       25.95       11.22       
C           58.25       28.35       12.16       
H           55.87       26.1        11.43       
H           55.71       29.04       7.41        
H           60.97       28.06       10.71       
H           58.38       29.12       6.6         
H           50.5        26.41       8.22        
H           53.86       24.64       11.4        
H           52.38       27.53       5.98        
H           54.09       27.82       6.13        
H           53.54081    26.14178    6.31294     
H           52.31       29.32       7.04        
H           51.25       28.64       8.12        
H           52.47773    29.61429    8.79161     
H           59.29       28.35       12.55       
H           58.11       29.33       11.68       
H           57.38027    28.38685    12.81598    
H           59.76       26.15       11.76       
H           58.06       25.42       11.81       
H           59.03177    25.42949    10.28171    
H           48.62       24.63       9.35        
H           63.28       28.73       9.26        
S           51.16       23.08       11.55       
C           49.5        24.3        9.87        
C           49.48       23.28       10.83       
C           66.4        30.4        5.01        
C           66.36       30.47       6.46        
C           65.31       29.87       4.36        
N           67.32       30.8        7.33        
N           65.41       30.05       8.4         
O           66.72       30.48       8.5         
H           63.32       28.91       4.62        
H           65.19       29.78       3.29        
C           64.12       29.49       5.13        
C           65.19       30.01       7.17        
C           63.92       29.65       6.5         
C           77.52       37.1        -5.51       
C           76.49       36.32       -6.0        
S           77.59       37.24       -3.77       
C           72.76       33.51       -2.15       
C           73.88       34.15       -1.49       
C           74.02       34.13       -0.05       
C           72.95       33.49       0.69        
C           71.91       32.71       0.04        
C           71.82       32.72       -1.36       
C           72.76       33.55       2.18        
C           71.46       32.78       2.41        
C           71.08       32.16       1.13        
C           72.76       33.71       -3.62       
C           74.08       34.42       -3.78       
C           74.63       34.76       -2.6        
C           70.76       32.4        3.54        
C           69.6        31.66       3.46        
C           69.1        31.19       2.22        
C           69.86       31.44       1.08        
C           74.53       34.93       -4.97       
C           75.66       35.79       -4.94       
C           76.24       36.09       -3.69       
C           75.73       35.62       -2.48       
C           72.57       35.03       2.63        
C           73.96       32.84       2.89        
C           71.53       34.6        -4.07       
C           72.71       32.32       -4.37       
H           70.84       32.47       -1.86       
H           74.92       34.53       0.45        
H           74.13       34.71       -5.92       
H           76.22       35.87       -1.47       
H           71.12       32.65       4.55        
H           69.52       31.07       0.12        
H           72.46       35.18       3.7         
H           73.51       35.53       2.36        
H           71.68627    35.54781    2.25718     
H           74.84       33.47       3.04        
H           73.67       32.55       3.9         
H           74.32209    31.93479    2.40258     
H           72.01       31.65       -3.89       
H           72.32       32.56       -5.32       
H           73.73172    31.94585    -4.43476    
H           70.58       34.08       -3.87       
H           71.47       34.74       -5.13       
H           71.53       35.5822     -3.59736    
H           68.86       31.59       5.59        
H           76.5        35.99       -6.99       
S           67.54       30.45       2.5         
C           68.73       31.28       4.57        
C           67.51       30.8        4.18        
C           81.03       38.59       -7.53       
C           80.28       37.55       -8.14       
C           80.43       39.16       -6.42       
N           80.47       36.91       -9.31       
N           78.67       36.03       -8.33       
O           79.42       36.04       -9.5        
H           79.04       39.0        -4.76       
H           80.98       39.81       -5.86       
C           79.31       38.59       -5.79       
C           79.11       36.95       -7.57       
C           78.66       37.5        -6.28       
C           93.69       46.07       -15.28      
C           92.64       45.41       -15.95      
S           93.75       45.6        -13.62      
C           88.47       42.18       -13.0       
C           89.52       42.63       -12.18      
C           89.4        42.59       -10.79      
C           88.33       41.95       -10.2       
C           87.3        41.49       -11.05      
C           87.37       41.6        -12.47      
C           87.99       41.78       -8.68       
C           86.59       41.13       -8.79       
C           86.31       40.89       -10.15      
C           88.66       42.71       -14.47      
C           90.07       43.23       -14.42      
C           90.49       43.31       -13.0       
C           85.72       40.72       -7.8        
C           84.49       40.18       -8.17       
C           84.21       39.83       -9.51       
C           85.14       40.18       -10.48      
C           90.79       43.71       -15.45      
C           91.89       44.54       -15.11      
C           92.33       44.54       -13.78      
C           91.71       43.95       -12.71      
C           87.84       43.11       -7.93       
C           89.05       40.89       -7.97       
C           87.76       43.87       -14.82      
C           88.51       41.63       -15.47      
H           86.53       41.3        -13.1       
H           90.15       43.07       -10.19      
H           90.35       43.62       -16.43      
H           92.11       44.07       -11.79      
H           85.92       40.78       -6.73       
H           85.01       39.95       -11.54      
H           88.78       43.58       -7.67       
H           87.36       42.86       -6.99       
H           87.19021    43.75979    -8.51622    
H           89.94       41.57       -7.78       
H           88.74       40.6        -6.94       
H           89.34219    39.97781    -8.49023    
H           87.41       41.42       -15.47      
H           88.84       42.03       -16.5       
H           89.07201    40.76537    -15.11694   
H           88.09       44.47       -15.67      
H           86.78       43.4        -15.14      
H           87.63195    44.60273    -14.02325   
H           83.27       39.91       -6.31       
H           92.46       45.48       -17.01      
S           82.63       39.07       -9.82       
C           83.32       39.79       -7.41       
C           82.3        39.17       -8.09       
C           95.96       49.38       -17.1       
C           94.57       49.2        -17.43      
C           96.52       48.45       -16.23      
N           93.75       49.9        -18.26      
N           92.57       48.2        -17.44      
O           92.59       49.22       -18.32      
H           96.28       46.6        -14.92      
H           97.47       48.59       -15.99      
C           95.79       47.28       -15.64      
C           93.78       48.13       -16.87      
C           94.46       47.18       -15.93      
C           105.0       61.11       -24.9       
C           103.92      60.52       -25.48      
S           105.22      60.52       -23.3       
C           100.48      56.36       -22.55      
C           101.6       56.88       -21.85      
C           101.82      56.52       -20.51      
C           100.96      55.58       -19.94      
C           99.98       54.99       -20.71      
C           99.71       55.35       -21.98      
C           100.9       55.24       -18.49      
C           99.89       54.05       -18.55      
C           99.29       54.02       -19.85      
C           100.4       56.96       -23.95      
C           101.61      57.94       -23.88      
C           102.35      57.83       -22.72      
C           99.44       53.17       -17.6       
C           98.42       52.17       -17.89      
C           97.8        52.25       -19.17      
C           98.27       53.16       -20.13      
C           102.1       58.79       -24.87      
C           103.23      59.55       -24.65      
C           103.88      59.46       -23.38      
C           103.39      58.66       -22.42      
C           100.34      56.56       -17.88      
C           102.22      54.84       -17.84      
C           99.1        57.69       -24.26      
C           100.79      55.97       -25.11      
H           98.86       54.95       -22.49      
H           102.68      57.03       -19.96      
H           101.57      59.0        -25.84      
H           103.69      58.74       -21.37      
H           99.76       53.25       -16.55      
H           97.82       53.07       -21.11      
H           101.03      57.44       -18.05      
H           99.39       56.85       -18.42      
H           100.11195   56.46736    -16.81816   
H           102.72      55.81       -17.48      
H           101.99      54.25       -17.0       
H           102.89933   54.28939    -18.49072   
H           100.55      56.37       -26.12      
H           101.86      55.96       -24.98      
H           100.55272   54.93461    -24.86553   
H           99.15       58.02       -25.34      
H           98.36       56.95       -24.29      
H           99.04429    58.47695    -23.50787   
H           98.14       51.0        -16.11      
H           103.58      60.75       -26.47      
S           96.64       50.9        -19.31      
C           97.79       51.17       -17.1       
C           96.84       50.39       -17.7       
C           107.93      64.28       -25.97      
C           107.11      63.59       -26.93      
C           107.66      63.85       -24.73      
N           107.23      63.74       -28.25      
N           105.68      62.11       -27.72      
O           106.35      62.79       -28.75      
H           106.71      62.59       -23.38      
H           108.47      64.18       -24.02      
C           106.73      62.87       -24.4       
C           106.15      62.6        -26.62      
C           105.88      62.24       -25.3       
C           115.35      79.26       -26.75      
C           115.24      78.45       -25.67      
S           114.65      78.51       -28.16      
C           112.69      72.87       -25.71      
C           112.72      73.52       -26.98      
C           112.22      72.82       -28.16      
C           111.6       71.62       -27.98      
C           111.6       71.02       -26.64      
C           112.21      71.63       -25.56      
C           111.24      70.54       -29.0       
C           110.77      69.41       -28.01      
C           111.0       69.66       -26.66      
C           113.4       73.67       -24.68      
C           113.58      75.01       -25.42      
C           113.25      74.87       -26.77      
C           110.23      68.2        -28.36      
C           109.85      67.26       -27.38      
C           110.04      67.59       -26.02      
C           110.65      68.81       -25.62      
C           114.13      76.23       -24.93      
C           114.52      77.2        -25.89      
C           114.13      77.1        -27.21      
C           113.44      75.95       -27.63      
C           112.54      70.11       -29.79      
C           110.03      71.04       -29.9       
C           114.74      72.99       -24.2       
C           112.53      73.86       -23.42      
H           112.16      71.2        -24.53      
H           112.21      73.37       -29.09      
H           114.35      76.35       -23.86      
H           113.01      75.9        -28.6       
H           110.24      67.85       -29.38      
H           110.79      69.1        -24.64      
H           113.12      70.97       -30.1       
H           113.22      69.54       -29.11      
H           112.33487   69.43095    -30.61759   
H           110.37      71.87       -30.56      
H           109.81      70.19       -30.54      
H           109.17416   71.44721    -29.36165   
H           112.17      72.91       -23.1       
H           113.04      74.33       -22.64      
H           111.59127   74.34359    -23.69024   
H           114.38      71.98       -24.07      
H           115.11      73.54       -23.3       
H           115.49531   72.946      -24.98464   
H           108.77      65.67       -28.48      
H           115.71      78.61       -24.73      
S           109.55      66.34       -24.92      
C           109.08      66.01       -27.47      
C           108.76      65.39       -26.28      
C           117.98      82.77       -27.42      
C           117.09      82.71       -26.24      
C           117.67      81.8        -28.34      
N           117.02      83.46       -25.13      
N           115.62      81.65       -24.81      
O           116.1       82.81       -24.29      
H           116.84      79.96       -28.77      
H           118.19      81.65       -29.26      
C           116.82      80.71       -28.1       
C           116.22      81.59       -25.99      
C           116.06      80.55       -27.0       
C           130.13      92.62       -33.17      
C           129.8       91.43       -33.58      
S           129.15      93.09       -31.73      
C           125.49      87.7        -31.39      
C           125.8       88.86       -30.57      
C           125.21      89.08       -29.26      
C           124.31      88.12       -28.9       
C           123.79      87.06       -29.77      
C           124.47      86.86       -31.01      
C           123.55      88.06       -27.55      
C           122.5       86.93       -27.77      
C           122.72      86.34       -29.05      
C           126.44      87.62       -32.54      
C           127.13      89.0        -32.49      
C           126.76      89.69       -31.28      
C           121.5       86.45       -26.99      
C           120.7       85.38       -27.45      
C           121.0       84.83       -28.73      
C           122.02      85.27       -29.55      
C           128.09      89.52       -33.26      
C           128.74      90.78       -32.88      
C           128.36      91.48       -31.67      
C           127.38      90.86       -30.89      
C           122.77      89.39       -27.32      
C           124.45      87.71       -26.34      
C           125.79      87.47       -33.98      
C           127.5       86.48       -32.27      
H           124.19      86.01       -31.6       
H           125.55      89.92       -28.61      
H           128.39      89.03       -34.19      
H           127.16      91.37       -29.91      
H           121.3       87.01       -26.07      
H           122.22      84.92       -30.57      
H           122.25      89.36       -26.42      
H           123.61      90.08       -27.2       
H           122.21796   89.78431    -28.17315   
H           125.1       88.56       -26.22      
H           123.79      87.61       -25.48      
H           124.97255   86.75796    -26.43306   
H           127.27      85.62       -32.9       
H           128.5       86.82       -32.44      
H           127.44909   86.09451    -31.25172   
H           125.3       86.53       -34.01      
H           126.51      87.43       -34.77      
H           125.02785   88.23215    -34.14231   
H           119.31      84.86       -25.85      
H           130.07      91.08       -34.59      
S           119.98      83.52       -29.16      
C           119.58      84.64       -26.88      
C           119.06      83.7        -27.69      
C           133.07      95.31       -34.85      
C           133.11      93.91       -35.06      
C           132.06      95.67       -34.0       
N           134.0       93.18       -35.8       
N           132.49      91.8        -35.0       
O           133.57      91.92       -35.81      
H           130.23      95.36       -32.84      
H           132.07      96.69       -33.53      
C           131.03      94.86       -33.48      
C           132.13      93.02       -34.51      
C           131.07      93.51       -33.7       
C           144.86      105.48      -40.23      
C           144.25      104.57      -41.06      
S           143.93      105.63      -38.77      
C           139.5       101.1       -39.45      
C           140.05      101.94      -38.48      
C           139.47      102.04      -37.21      
C           138.44      101.27      -36.87      
C           137.95      100.35      -37.88      
C           138.44      100.25      -39.17      
C           137.73      101.17      -35.53      
C           136.71      100.03      -35.83      
C           136.93      99.54       -37.15      
C           140.31      101.16      -40.72      
C           141.28      102.33      -40.34      
C           141.07      102.8       -39.04      
C           135.83      99.43       -35.0       
C           135.26      98.23       -35.4       
C           135.57      97.68       -36.66      
C           136.36      98.33       -37.6       
C           142.18      102.99      -41.16      
C           143.05      103.94      -40.53      
C           142.7       104.44      -39.29      
C           141.73      103.89      -38.48      
C           136.94      102.43      -35.21      
C           138.63      100.74      -34.41      
C           139.38      101.68      -41.92      
C           141.14      99.92       -41.15      
H           137.95      99.63       -39.87      
H           139.82      102.8       -36.52      
H           142.39      102.7       -42.19      
H           141.61      104.22      -37.45      
H           135.68      99.73       -34.01      
H           136.67      97.86       -38.53      
H           137.58      103.32      -35.11      
H           136.48      102.16      -34.25      
H           136.17591   102.6823    -35.94526   
H           139.23      99.79       -34.62      
H           137.99      100.48      -33.54      
H           139.35083   101.49151   -34.08792   
H           141.68      100.12      -42.01      
H           141.99      99.72       -40.41      
H           140.55928   99.00643    -41.27748   
H           138.78      100.86      -42.35      
H           140.04      102.05      -42.78      
H           138.7262    102.4824    -41.57824   
H           134.04      97.55       -33.64      
H           144.64      104.34      -42.07      
S           134.67      96.2        -36.92      
C           134.47      97.38       -34.6       
C           134.18      96.22       -35.23      
C           148.62      107.57      -40.57      
C           147.7       107.49      -41.72      
C           148.07      106.98      -39.43      
N           147.78      108.04      -42.87      
N           145.73      107.05      -42.81      
O           146.65      107.79      -43.53      
H           146.51      105.84      -38.37      
H           148.62      107.03      -38.48      
C           146.77      106.34      -39.38      
C           146.39      106.83      -41.63      
C           145.96      106.23      -40.44      
C           164.06      113.26      -41.14      
C           163.5       113.07      -39.9       
S           162.79      113.33      -42.41      
C           157.66      111.27      -39.34      
C           158.0       111.95      -40.53      
C           157.08      111.91      -41.6       
C           155.83      111.39      -41.48      
C           155.48      110.86      -40.2       
C           156.4       110.74      -39.12      
C           154.64      111.53      -42.44      
C           153.58      110.87      -41.6       
C           154.08      110.46      -40.32      
C           158.76      111.48      -38.24      
C           159.87      112.07      -39.16      
C           159.35      112.25      -40.45      
C           152.38      110.47      -42.05      
C           151.62      109.65      -41.24      
C           152.22      109.12      -40.05      
C           153.43      109.51      -39.58      
C           161.23      112.33      -38.86      
C           162.13      112.68      -39.91      
C           161.57      112.84      -41.25      
C           160.23      112.64      -41.51      
C           154.95      110.68      -43.72      
C           154.27      113.0       -42.82      
C           159.38      110.19      -37.69      
C           158.46      112.49      -37.1       
H           156.11      110.32      -38.16      
H           157.41      112.38      -42.55      
H           161.62      112.39      -37.89      
H           159.83      112.71      -42.49      
H           151.99      110.84      -43.01      
H           153.83      109.13      -38.61      
H           154.03      110.6       -44.35      
H           155.62      111.25      -44.38      
H           155.34983   109.69134   -43.49464   
H           155.03      113.54      -43.41      
H           153.42      113.02      -43.35      
H           154.14248   113.65177   -41.95569   
H           159.3       112.39      -36.38      
H           158.55      113.51      -37.55      
H           157.52225   112.34683   -36.56312   
H           158.77      109.88      -36.85      
H           160.34      110.45      -37.17      
H           159.5578    109.36502   -38.37985   
H           149.6       109.76      -42.09      
H           164.03      113.25      -38.96      
S           151.14      107.98      -39.3       
C           150.29      109.28      -41.34      
C           149.88      108.27      -40.49      
C           168.29      114.29      -42.67      
C           167.91      114.27      -41.28      
C           167.2       114.02      -43.42      
N           168.72      114.58      -40.24      
N           166.61      114.11      -39.46      
O           167.91      114.44      -39.17      
H           165.1       113.39      -43.72      
H           167.34      113.96      -44.5       
C           165.8       113.72      -42.96      
C           166.54      114.07      -40.76      
C           165.43      113.69      -41.59      
H           19.43       3.69        32.0        
H           169.25      114.64      -43.0       
