612

C           3.26        10.24       2.13        
C           3.03        9.65        3.33        
S           1.73        10.97       1.44        
C           -2.3        9.89        6.13        
C           -2.21       10.65       4.95        
C           -3.25       11.39       4.42        
C           -4.42       11.55       5.16        
C           -4.57       10.74       6.32        
C           -3.5        9.91        6.84        
C           -5.55       12.6        5.05        
C           -6.61       11.82       5.9         
C           -5.85       11.09       6.86        
C           -0.91       9.42        6.61        
C           -0.14       9.74        5.26        
C           -0.91       10.43       4.38        
C           -7.92       12.11       6.08        
C           -8.59       11.67       7.22        
C           -7.91       10.91       8.17        
C           -6.53       10.6        7.93        
C           1.15        9.39        5.04        
C           1.69        9.91        3.84        
C           0.87        10.51       2.86        
C           -0.48       10.75       3.14        
C           -6.01       12.79       3.57        
C           -5.33       13.98       5.76        
C           -0.85       7.91        6.74        
C           -0.25       10.1        7.84        
H           -3.63       9.29        7.78        
H           -3.09       11.94       3.51        
H           1.68        8.8         5.73        
H           -1.03       11.27       2.39        
H           -8.37       12.78       5.38        
H           -5.89       10.03       8.6         
H           -5.32       13.42       3.01        
H           -6.96       13.31       3.53        
H           -6.20608    11.80962    3.13583     
H           -5.13       13.9        6.86        
H           -6.17       14.64       5.77        
H           -4.52885    14.52364    5.25928     
H           -0.75       9.58        8.71        
H           0.73        9.72        8.12        
H           -0.29824    11.18884    7.85378     
H           -1.47       7.66        7.54        
H           0.16        7.56        6.91        
H           -1.22635    7.42713     5.83817     
H           -10.61      12.54       7.08        
H           3.81        9.27        3.98        
S           -8.84       10.46       9.53        
C           -9.92       11.9        7.7         
C           -10.23      11.27       8.81        
C           6.68        10.32       -0.55       
C           6.74        9.61        0.69        
C           5.63        11.16       -0.74       
N           7.55        8.67        1.16        
N           5.8         8.79        2.58        
O           7.01        8.21        2.29        
H           3.6         11.71       -0.08       
H           5.61        11.84       -1.61       
C           4.46        11.12       0.21        
C           5.6         9.56        1.57        
C           4.42        10.31       1.32        
C           17.88       11.18       -12.77      
C           16.54       11.27       -13.02      
S           18.17       10.78       -11.0       
C           12.38       11.37       -8.61       
C           13.72       11.16       -8.21       
C           14.06       10.83       -6.89       
C           13.07       10.69       -5.97       
C           11.76       10.88       -6.4        
C           11.36       11.31       -7.67       
C           13.08       10.08       -4.55       
C           11.65       10.2        -4.12       
C           10.84       10.64       -5.25       
C           12.23       11.5        -10.13      
C           13.72       11.42       -10.52      
C           14.52       11.19       -9.38       
C           11.15       9.99        -2.87       
C           9.76        10.08       -2.66       
C           8.98        10.49       -3.77       
C           9.47        10.73       -5.1        
C           14.34       11.38       -11.71      
C           15.73       11.15       -11.85      
C           16.52       10.91       -10.67      
C           15.88       10.94       -9.43       
C           14.05       10.92       -3.78       
C           13.46       8.59        -4.49       
C           11.64       12.88       -10.51      
C           11.46       10.39       -10.8       
H           10.35       11.48       -7.94       
H           15.07       10.5        -6.78       
H           13.82       11.84       -12.6       
H           16.44       10.81       -8.51       
H           11.87       9.67        -2.09       
H           8.79        11.08       -5.88       
H           15.0        10.96       -4.27       
H           14.37       10.37       -2.89       
H           13.64735    11.85246    -3.38441    
H           12.88       8.09        -5.22       
H           13.24       8.23        -3.5        
H           14.48101    8.30958     -4.74885    
H           10.41       10.39       -10.39      
H           11.6        10.59       -11.82      
H           11.8683     9.3974      -10.60993   
H           11.1        12.75       -11.39      
H           10.85       13.21       -9.85       
H           12.41634    13.6426     -10.57183   
H           9.39        9.51        -0.54       
H           16.12       11.59       -13.92      
S           7.26        10.7        -3.23       
C           8.99        9.78        -1.47       
C           7.75        10.29       -1.58       
C           21.21       10.99       -15.77      
C           21.46       11.31       -14.4       
C           19.94       11.11       -16.09      
N           22.57       11.39       -13.69      
N           20.82       11.56       -12.25      
O           22.17       11.59       -12.36      
H           17.88       11.13       -15.57      
H           19.68       11.15       -17.13      
C           18.87       11.18       -15.11      
C           20.35       11.28       -13.44      
C           19.01       11.21       -13.76      
C           33.26       10.9        -27.28      
C           32.0        11.37       -27.57      
S           33.43       10.37       -25.62      
C           27.53       11.2        -23.38      
C           28.82       11.04       -22.88      
C           29.03       10.65       -21.52      
C           27.94       10.52       -20.67      
C           26.67       10.81       -21.15      
C           26.46       11.23       -22.53      
C           27.88       10.09       -19.21      
C           26.43       10.32       -18.88      
C           25.75       10.75       -20.01      
C           27.5        11.52       -24.84      
C           29.03       11.42       -25.14      
C           29.73       10.94       -24.04      
C           25.77       10.19       -17.69      
C           24.4        10.48       -17.69      
C           23.76       10.88       -18.88      
C           24.46       11.08       -20.1       
C           29.74       11.56       -26.34      
C           31.11       11.32       -26.41      
C           31.75       10.73       -25.3       
C           31.07       10.6        -24.08      
C           28.99       10.96       -18.52      
C           28.24       8.59        -19.1       
C           26.9        12.97       -24.86      
C           26.59       10.47       -25.49      
H           25.45       11.47       -22.9       
H           30.0        10.37       -21.23      
H           29.21       11.81       -27.28      
H           31.51       10.18       -23.16      
H           26.27       9.74        -16.84      
H           23.96       11.4        -21.02      
H           30.06       10.73       -18.78      
H           28.99       11.89       -19.01      
H           28.85362    11.19688    -17.46483   
H           29.35       8.45        -19.05      
H           27.95       8.07        -18.15      
H           27.91204    7.96973     -19.93415   
H           25.52       10.77       -25.27      
H           26.73       10.47       -26.63      
H           26.88104    9.45135     -25.2336    
H           26.08       13.16       -24.25      
H           27.69       13.62       -24.56      
H           26.69471    13.33811    -25.86521   
H           23.89       10.19       -15.57      
H           31.59       11.86       -28.46      
S           22.06       11.16       -18.51      
C           23.56       10.47       -16.53      
C           22.25       10.87       -16.74      
C           36.93       10.94       -29.63      
C           35.64       11.03       -30.27      
C           36.91       10.96       -28.28      
N           35.31       11.07       -31.54      
N           33.44       11.21       -30.36      
O           33.97       11.27       -31.59      
H           35.73       10.99       -26.41      
H           37.89       10.95       -27.79      
C           35.64       10.92       -27.54      
C           34.43       10.98       -29.51      
C           34.41       10.8        -28.09      
C           50.59       12.22       -39.16      
C           49.28       12.09       -39.68      
S           50.61       11.78       -37.45      
C           44.46       10.87       -36.15      
C           45.7        10.95       -35.43      
C           45.72       10.72       -34.06      
C           44.5        10.75       -33.35      
C           43.29       10.76       -34.06      
C           43.27       10.87       -35.44      
C           44.26       10.72       -31.84      
C           42.76       10.56       -31.83      
C           42.22       10.64       -33.12      
C           44.72       11.12       -37.64      
C           46.24       11.32       -37.67      
C           46.76       11.26       -36.35      
C           41.95       10.44       -30.72      
C           40.56       10.48       -30.84      
C           40.08       10.67       -32.13      
C           40.84       10.6        -33.31      
C           46.97       11.56       -38.77      
C           48.33       11.78       -38.65      
C           48.87       11.74       -37.36      
C           48.14       11.5        -36.23      
C           44.81       12.06       -31.33      
C           44.92       9.53        -31.13      
C           44.11       12.46       -38.05      
C           44.18       9.94        -38.46      
H           42.32       10.88       -35.92      
H           46.63       10.78       -33.49      
H           46.4        11.61       -39.73      
H           48.59       11.63       -35.27      
H           42.41       10.59       -29.77      
H           40.35       10.55       -34.24      
H           45.84       12.15       -31.59      
H           44.34       12.8        -31.99      
H           44.60452    12.18754    -30.26717   
H           45.98       9.58        -31.07      
H           44.51       9.45        -30.15      
H           44.75265    8.56956     -31.6175    
H           43.12       9.98        -38.27      
H           44.3        10.11       -39.51      
H           44.53639    8.96349     -38.13212   
H           43.03       12.5        -37.8       
H           44.16       12.58       -39.13      
H           44.53025    13.34953    -37.58072   
H           39.64       10.53       -28.86      
H           49.04       12.15       -40.73      
S           38.36       10.89       -32.19      
C           39.44       10.61       -29.92      
C           38.2        10.83       -30.39      
C           54.41       12.64       -41.19      
C           53.22       12.23       -41.87      
C           54.11       13.0        -39.89      
N           53.13       11.78       -43.15      
N           51.16       11.44       -42.12      
O           51.93       11.19       -43.23      
H           52.8        13.1        -38.26      
H           54.91       13.51       -39.31      
C           52.87       12.79       -39.3       
C           51.94       12.13       -41.31      
C           51.76       12.37       -39.91      
C           66.96       14.64       -52.03      
C           65.7        15.05       -52.24      
S           67.14       13.94       -50.45      
C           61.22       14.51       -48.06      
C           62.42       13.91       -47.73      
C           62.46       13.06       -46.62      
C           61.33       12.81       -45.82      
C           60.2        13.58       -46.13      
C           60.11       14.43       -47.25      
C           61.23       11.99       -44.57      
C           59.81       12.46       -44.1       
C           59.29       13.39       -45.07      
C           61.41       15.33       -49.31      
C           62.86       14.98       -49.77      
C           63.44       14.21       -48.74      
C           59.03       12.08       -43.03      
C           57.79       12.65       -42.86      
C           57.26       13.5        -43.86      
C           57.98       13.93       -44.92      
C           63.49       15.16       -50.98      
C           64.83       14.84       -51.12      
C           65.45       14.14       -50.03      
C           64.79       13.82       -48.84      
C           62.31       12.34       -43.52      
C           61.25       10.48       -44.89      
C           61.13       16.77       -48.82      
C           60.2        15.03       -50.23      
H           59.27       15.02       -47.37      
H           63.41       12.56       -46.35      
H           62.95       15.76       -51.8       
H           65.21       13.29       -48.02      
H           59.48       11.54       -42.2       
H           57.55       14.66       -45.63      
H           63.31       11.99       -43.73      
H           62.07       11.79       -42.57      
H           62.33098    13.4168     -43.35219   
H           62.22       10.08       -44.77      
H           60.71       9.97        -44.09      
H           60.68811    10.21684    -45.78617   
H           59.26       15.53       -49.92      
H           60.35       15.48       -51.23      
H           60.13581    13.97438    -50.4939    
H           60.21       16.86       -48.38      
H           61.75       16.91       -47.93      
H           61.45555    17.56972    -49.48525   
H           57.1        11.76       -40.95      
H           65.41       15.51       -53.18      
S           55.63       14.0        -43.4       
C           56.86       12.43       -41.79      
C           55.61       12.92       -42.0       
C           70.06       15.55       -54.8       
C           70.27       14.46       -53.95      
C           68.99       16.3        -54.62      
N           71.31       13.71       -53.76      
N           69.59       12.99       -52.41      
O           70.9        12.74       -52.88      
H           67.14       16.69       -53.65      
H           68.94       17.24       -55.15      
C           68.0        16.04       -53.68      
C           69.26       14.15       -52.97      
C           68.03       14.85       -52.94      
C           83.28       22.81       -61.93      
C           82.02       23.33       -62.05      
S           83.24       21.21       -61.17      
C           77.15       20.73       -59.9       
C           78.35       19.93       -59.8       
C           78.35       18.68       -59.17      
C           77.14       18.18       -58.68      
C           75.92       18.91       -58.72      
C           75.91       20.2        -59.42      
C           77.0        16.97       -57.76      
C           75.48       17.0        -57.51      
C           74.87       18.19       -57.99      
C           77.28       21.88       -60.9       
C           78.82       21.94       -60.82      
C           79.39       20.75       -60.33      
C           74.73       16.04       -56.85      
C           73.38       16.32       -56.61      
C           72.89       17.55       -56.96      
C           73.59       18.49       -57.71      
C           79.67       22.82       -61.44      
C           81.01       22.5        -61.49      
C           81.54       21.31       -60.95      
C           80.7        20.4        -60.3       
C           77.8        17.21       -56.51      
C           77.38       15.69       -58.61      
C           76.59       23.17       -60.38      
C           76.78       21.49       -62.34      
H           74.97       20.7        -59.49      
H           79.27       18.06       -59.08      
H           79.25       23.71       -61.91      
H           81.0        19.47       -59.94      
H           75.2        15.1        -56.49      
H           73.08       19.4        -58.13      
H           78.83       17.21       -56.68      
H           77.68       18.23       -56.09      
H           77.53775    16.60044    -55.64527   
H           78.48       15.77       -58.9       
H           77.35       14.75       -57.99      
H           76.77987    15.58409    -59.51373   
H           75.8        21.97       -62.66      
H           77.59       21.72       -63.1       
H           76.65778    20.41156    -62.44065   
H           76.17       23.7        -61.22      
H           75.64       22.98       -59.87      
H           77.25319    23.84047    -59.83342   
H           72.6        14.49       -55.53      
H           81.79       24.22       -62.62      
S           71.17       17.66       -56.57      
C           72.38       15.53       -55.92      
C           71.14       16.08       -55.72      
C           87.03       24.22       -63.69      
C           85.8        24.91       -63.91      
C           86.89       23.2        -62.81      
N           85.43       25.98       -64.57      
N           83.62       25.3        -63.55      
O           84.11       26.17       -64.46      
H           85.83       21.84       -61.57      
H           87.77       22.69       -62.38      
C           85.68       22.75       -62.19      
C           84.56       24.45       -63.28      
C           84.45       23.28       -62.48      
C           98.97       23.96       -75.24      
C           98.16       22.93       -74.91      
S           98.43       25.4        -74.46      
C           93.96       23.29       -70.42      
C           94.52       24.53       -70.8       
C           93.95       25.72       -70.33      
C           92.92       25.62       -69.39      
C           92.51       24.34       -68.86      
C           92.9        23.17       -69.51      
C           92.04       26.71       -68.86      
C           91.32       25.98       -67.7       
C           91.63       24.59       -67.75      
C           94.61       22.13       -71.25      
C           95.61       22.95       -72.08      
C           95.54       24.34       -71.77      
C           90.31       26.39       -66.82      
C           89.78       25.52       -65.85      
C           90.22       24.16       -65.88      
C           91.1        23.65       -66.83      
C           96.36       22.47       -73.12      
C           97.26       23.3        -73.81      
C           97.2        24.67       -73.46      
C           96.35       25.24       -72.47      
C           91.06       27.24       -69.89      
C           92.94       27.82       -68.25      
C           93.53       21.45       -72.05      
C           95.47       21.25       -70.29      
H           92.54       22.26       -69.17      
H           94.32       26.73       -70.68      
H           96.31       21.45       -73.53      
H           96.32       26.28       -72.29      
H           89.96       27.41       -66.85      
H           91.36       22.57       -66.8       
H           90.58       28.11       -69.44      
H           91.69       27.48       -70.74      
H           90.35619    26.46316    -70.18879   
H           93.87       28.02       -68.86      
H           92.44       28.74       -68.21      
H           93.2795     27.59607    -67.23872   
H           96.16       20.63       -70.91      
H           96.06       21.86       -69.58      
H           94.8921     20.55229    -69.68391   
H           92.79       20.8        -71.45      
H           94.01       20.81       -72.72      
H           92.91874    22.13317    -72.63969   
H           88.15       26.68       -64.78      
H           98.34       21.95       -75.32      
S           89.38       23.26       -64.66      
C           88.69       25.71       -64.88      
C           88.27       24.6        -64.31      
C           101.89      24.21       -78.52      
C           101.11      23.07       -78.31      
C           101.68      25.2        -77.58      
N           101.1       21.94       -79.05      
N           99.71       21.65       -77.23      
O           100.24      21.15       -78.36      
H           100.51      25.95       -75.88      
H           102.34      26.02       -77.49      
C           100.65      25.11       -76.54      
C           100.19      22.93       -77.22      
C           99.89       24.03       -76.34      
C           115.43      22.59       -87.93      
C           114.9       21.6        -87.13      
S           114.47      24.01       -87.87      
C           109.83      22.36       -83.89      
C           110.38      23.59       -84.45      
C           109.74      24.84       -84.38      
C           108.57      24.84       -83.49      
C           108.01      23.62       -83.02      
C           108.67      22.39       -83.08      
C           107.76      26.04       -83.01      
C           106.72      25.34       -82.13      
C           106.86      23.92       -82.24      
C           110.89      21.19       -83.99      
C           111.91      21.85       -84.92      
C           111.56      23.23       -85.24      
C           105.73      25.9        -81.35      
C           104.78      25.02       -80.74      
C           104.99      23.67       -80.82      
C           106.1       23.14       -81.43      
C           112.94      21.28       -85.51      
C           113.68      21.95       -86.43      
C           113.37      23.31       -86.71      
C           112.22      23.94       -86.21      
C           107.17      26.94       -84.1       
C           108.72      26.91       -82.23      
C           110.12      19.95       -84.6       
C           111.55      20.8        -82.62      
H           108.28      21.58       -82.48      
H           110.19      25.79       -84.77      
H           113.2       20.3        -85.24      
H           112.03      24.95       -86.37      
H           105.5       26.98       -81.38      
H           106.29      22.11       -81.28      
H           107.09      27.93       -83.81      
H           107.85      26.99       -84.92      
H           106.25918   26.53121    -84.53748   
H           109.54      27.3        -82.84      
H           108.22      27.76       -81.75      
H           109.22554   26.37598    -81.42541   
H           111.05      20.02       -81.97      
H           112.57      20.54       -82.66      
H           111.55      21.698      -82.00218   
H           109.31      19.7        -83.95      
H           110.82      19.09       -84.57      
H           109.8218    20.0494     -85.64369   
H           103.4       26.44       -79.7       
H           115.45      20.65       -86.96      
S           103.84      22.88       -79.77      
C           103.57      25.37       -80.03      
C           102.89      24.32       -79.56      
C           119.69      23.51       -89.1       
C           119.25      22.18       -88.64      
C           118.62      24.29       -89.36      
N           120.0       21.12       -88.24      
N           117.8       20.65       -87.84      
O           119.11      20.21       -87.81      
H           116.48      24.74       -89.34      
H           118.77      25.32       -89.63      
C           117.22      23.97       -89.04      
C           117.87      21.88       -88.34      
C           116.73      22.74       -88.56      
C           133.8       31.66       -92.41      
C           132.57      32.2        -92.29      
S           133.81      29.93       -92.15      
C           127.48      28.86       -91.51      
C           128.76      28.15       -91.35      
C           128.76      26.76       -90.99      
C           127.56      26.16       -90.57      
C           126.35      26.9        -90.64      
C           126.36      28.17       -91.17      
C           127.25      24.67       -90.21      
C           125.71      24.75       -90.0       
C           125.26      26.04       -90.26      
C           127.83      30.33       -91.84      
C           129.32      30.33       -91.99      
C           129.86      29.05       -91.62      
C           124.83      23.79       -89.46      
C           123.46      24.11       -89.54      
C           123.02      25.35       -89.97      
C           123.93      26.34       -90.38      
C           130.16      31.41       -92.17      
C           131.58      31.24       -92.13      
C           132.03      29.92       -91.99      
C           131.2       28.82       -91.76      
C           127.99      24.33       -88.92      
C           127.49      23.71       -91.38      
C           127.34      31.34       -90.75      
C           127.33      30.75       -93.22      
H           125.4       28.65       -91.25      
H           129.71      26.3        -90.92      
H           129.73      32.37       -92.44      
H           131.63      27.8        -91.64      
H           125.2       22.76       -89.16      
H           123.53      27.31       -90.75      
H           129.01      24.06       -89.11      
H           127.53      23.35       -88.56      
H           127.99716   25.13229    -88.18218   
H           126.69      23.88       -92.1       
H           127.36      22.72       -91.04      
H           128.49948   23.76012    -91.78809   
H           127.58      31.76       -93.38      
H           127.94      30.25       -93.93      
H           126.28482   30.49046    -93.38835   
H           126.35      31.59       -91.03      
H           127.89      32.27       -90.89      
H           127.49412   30.90566    -89.76223   
H           122.33      22.35       -88.7       
H           132.39      33.27       -92.37      
S           121.29      25.69       -89.86      
C           122.29      23.38       -89.17      
C           121.07      24.02       -89.33      
C           137.44      33.82       -93.46      
C           136.42      34.4        -92.64      
C           137.17      32.57       -93.89      
N           136.23      35.65       -92.24      
N           134.47      34.49       -91.48      
O           135.14      35.68       -91.46      
H           135.79      31.01       -94.21      
H           137.7       32.12       -94.73      
C           136.0       31.84       -93.51      
C           135.25      33.65       -92.18      
C           135.04      32.33       -92.68      
C           146.85      45.07       -100.8      
C           146.17      44.18       -101.53     
S           147.04      44.57       -99.12      
C           143.34      39.37       -98.96      
C           144.15      40.11       -98.08      
C           144.13      40.02       -96.71      
C           143.32      39.02       -96.18      
C           142.49      38.26       -96.97      
C           142.44      38.52       -98.34      
C           143.21      38.61       -94.72      
C           142.09      37.52       -94.79      
C           141.79      37.26       -96.14      
C           143.46      39.87       -100.44     
C           144.35      41.08       -100.24     
C           144.89      41.06       -98.88      
C           141.47      36.81       -93.71      
C           140.41      35.91       -94.07      
C           140.15      35.69       -95.43      
C           140.82      36.28       -96.49      
C           144.76      41.99       -101.1      
C           145.62      43.11       -100.74     
C           146.02      43.11       -99.36      
C           145.74      42.09       -98.41      
C           142.76      39.82       -93.9       
C           144.54      38.08       -94.16      
C           142.13      40.29       -101.01     
C           144.12      38.83       -101.34     
H           141.78      38.01       -99.07      
H           144.83      40.61       -96.07      
H           144.49      41.88       -102.18     
H           146.08      42.22       -97.38      
H           141.75      37.06       -92.68      
H           140.52      36.08       -97.49      
H           142.87      39.7        -92.82      
H           143.41      40.56       -94.3       
H           141.72382   40.12942    -94.03672   
H           145.34      38.81       -94.29      
H           144.51      37.86       -93.08      
H           144.77298   37.1335     -94.64781   
H           144.19      39.14       -102.33     
H           145.15      38.95       -100.96     
H           143.76291   37.80679    -101.22326  
H           141.49      39.43       -100.99     
H           142.31      40.52       -102.03     
H           141.64889   41.06551    -100.414    
H           139.59      35.24       -92.17      
H           145.87      44.28       -102.59     
S           138.91      34.54       -95.66      
C           139.45      35.32       -93.22      
C           138.65      34.49       -93.91      
C           147.95      49.23       -102.11     
C           147.11      48.38       -102.85     
C           148.42      48.58       -101.02     
N           146.43      48.61       -103.97     
N           145.73      46.64       -103.26     
O           145.57      47.59       -104.24     
H           148.49      47.01       -99.62      
H           149.2       49.03       -100.44     
C           148.12      47.25       -100.6      
C           146.75      47.03       -102.47     
C           147.21      46.45       -101.22     
H           -11.14      11.48       9.35        
H           148.36      50.18       -102.44     
