612

C           21.65       45.65       34.38       
C           21.44       46.61       33.42       
S           20.38       45.65       35.59       
C           16.02       49.35       32.77       
C           16.16       48.53       33.9        
C           14.98       48.24       34.67       
C           13.72       48.64       34.22       
C           13.66       49.47       33.1        
C           14.79       49.79       32.33       
C           12.35       48.08       34.62       
C           11.5        48.95       33.64       
C           12.27       49.74       32.78       
C           17.25       49.31       31.96       
C           18.24       48.52       32.86       
C           17.53       48.07       34.03       
C           10.18       48.97       33.54       
C           9.59        49.65       32.51       
C           10.38       50.38       31.61       
C           11.74       50.44       31.72       
C           19.55       48.2        32.66       
C           20.19       47.3        33.54       
C           19.46       46.85       34.72       
C           18.1        47.25       34.96       
C           12.04       48.45       36.08       
C           12.12       46.57       34.35       
C           17.77       50.76       31.69       
C           16.94       48.56       30.58       
H           14.71       50.36       31.39       
H           15.04       47.43       35.43       
H           20.12       48.47       31.74       
H           17.64       46.72       35.78       
H           9.53        48.31       34.13       
H           12.37       51.0        31.04       
H           12.8        48.05       36.82       
H           11.08       48.01       36.46       
H           11.89308    49.51341    36.26889    
H           12.59       46.36       33.37       
H           11.03       46.3        34.25       
H           12.61094    45.8931     35.04921    
H           16.21       49.16       29.92       
H           17.81       48.49       29.99       
H           16.50978    47.5585     30.58       
H           16.98       51.33       31.27       
H           18.61       50.61       30.96       
H           18.09943    51.3544     32.54221    
H           7.5         48.95       32.59       
H           22.14       46.69       32.55       
S           9.34        51.02       30.3        
C           8.19        49.61       32.15       
C           7.9         50.26       30.98       
C           25.21       43.08       35.18       
C           23.86       42.51       35.15       
C           25.27       44.46       35.03       
N           23.4        41.26       35.28       
N           21.63       42.71       34.91       
O           22.0        41.44       35.05       
H           24.23       46.26       34.42       
H           26.23       44.96       34.88       
C           24.12       45.21       34.66       
C           22.73       43.4        34.89       
C           22.81       44.79       34.54       
C           39.46       36.84       40.69       
C           39.33       37.96       39.91       
S           38.0        35.88       40.49       
C           34.25       39.85       37.01       
C           34.08       38.53       37.54       
C           32.94       37.83       37.41       
C           31.92       38.46       36.8        
C           32.0        39.78       36.43       
C           33.17       40.53       36.42       
C           30.56       37.82       36.49       
C           29.79       39.17       36.28       
C           30.69       40.28       36.08       
C           35.75       40.19       36.85       
C           36.35       39.16       37.8        
C           35.41       38.2        38.12       
C           28.48       39.34       36.07       
C           27.99       40.62       35.74       
C           28.87       41.66       35.5        
C           30.28       41.47       35.62       
C           37.7        39.11       38.21       
C           38.09       38.08       39.14       
C           37.19       37.08       39.46       
C           35.87       37.1        38.98       
C           29.96       37.0        37.64       
C           30.54       37.11       35.13       
C           36.11       41.68       37.2        
C           36.22       39.93       35.38       
H           33.2        41.55       36.13       
H           32.92       36.77       37.64       
H           38.3        39.98       38.08       
H           35.2        36.33       39.27       
H           27.8        38.51       36.27       
H           30.92       42.32       35.44       
H           30.55       36.03       37.68       
H           29.07       36.68       37.16       
H           29.75608    37.57533    38.54306    
H           31.11       37.8        34.46       
H           29.55       37.02       34.78       
H           30.99942    36.12155    35.13       
H           36.38       40.83       34.82       
H           37.14       39.58       35.66       
H           35.73166    39.08259    34.89884    
H           37.09       42.06       36.75       
H           35.3        42.12       36.62       
H           35.95931    41.87374    38.26201    
H           25.83       40.27       35.54       
H           40.09       38.77       39.86       
S           27.99       43.19       35.16       
C           26.62       40.99       35.47       
C           26.42       42.33       35.25       
C           42.96       35.98       43.27       
C           41.9        35.01       43.08       
C           42.82       37.11       42.52       
N           41.78       33.8        43.49       
N           40.0        34.2        42.33       
O           40.68       33.23       43.0        
H           41.72       38.26       41.16       
H           43.61       37.82       42.4        
C           41.69       37.34       41.64       
C           40.77       35.32       42.23       
C           40.64       36.51       41.49       
C           58.3        37.01       49.49       
C           57.27       37.87       49.77       
S           57.66       35.49       48.91       
C           51.64       37.09       47.83       
C           52.27       35.83       48.19       
C           51.62       34.58       47.9        
C           50.36       34.61       47.28       
C           49.8        35.95       47.02       
C           50.35       37.17       47.36       
C           49.56       33.53       46.49       
C           48.35       34.32       45.97       
C           48.53       35.71       46.26       
C           52.44       38.29       48.33       
C           53.67       37.54       48.96       
C           53.59       36.16       48.69       
C           47.18       33.85       45.47       
C           46.19       34.8        45.06       
C           46.4        36.19       45.3        
C           47.52       36.67       45.97       
C           54.77       38.1        49.42       
C           56.0        37.4        49.42       
C           55.98       36.06       49.05       
C           54.8        35.42       48.75       
C           49.27       32.4        47.53       
C           50.48       33.04       45.36       
C           51.44       39.02       49.32       
C           52.88       39.23       47.21       
H           49.94       38.07       46.99       
H           52.05       33.55       48.12       
H           54.73       39.12       49.77       
H           54.83       34.34       48.56       
H           46.99       32.8        45.24       
H           47.61       37.72       46.17       
H           50.25       32.29       48.02       
H           48.6        32.69       48.35       
H           48.84786    31.49445    47.09425    
H           51.39       32.7        45.79       
H           49.97       32.28       44.83       
H           50.82599    33.7814     44.63978    
H           52.1        39.85       46.91       
H           53.67       39.83       47.66       
H           53.28996    38.69281    46.35474    
H           50.58       39.48       48.78       
H           50.97       38.32       50.01       
H           51.92833    39.82174    49.87393    
H           44.45       33.64       44.24       
H           57.43       38.91       50.02       
S           45.03       37.14       44.68       
C           44.85       34.58       44.41       
C           44.17       35.75       44.05       
C           62.74       37.81       48.8        
C           61.75       38.87       48.8        
C           62.16       36.55       48.8        
N           61.98       40.15       48.73       
N           59.78       39.76       49.23       
O           60.78       40.72       49.01       
H           60.47       35.19       49.12       
H           62.87       35.67       48.79       
C           60.75       36.23       49.06       
C           60.33       38.6        49.05       
C           59.72       37.24       49.19       
C           78.74       39.11       44.41       
C           77.95       38.02       44.22       
S           77.91       40.38       45.29       
C           72.04       37.86       45.62       
C           72.67       39.09       46.01       
C           72.09       40.02       46.9        
C           70.8        39.76       47.18       
C           70.09       38.64       46.69       
C           70.68       37.7        45.85       
C           69.84       40.65       48.0        
C           68.54       39.84       47.96       
C           68.74       38.6        47.29       
C           73.02       36.92       44.98       
C           74.28       37.76       45.02       
C           74.11       39.01       45.71       
C           67.29       40.05       48.56       
C           66.27       39.12       48.51       
C           66.54       37.93       47.75       
C           67.77       37.66       47.14       
C           75.49       37.39       44.53       
C           76.55       38.28       44.67       
C           76.38       39.51       45.28       
C           75.14       39.97       45.76       
C           69.61       42.03       47.26       
C           70.29       40.98       49.48       
C           72.67       36.55       43.49       
C           73.13       35.59       45.72       
H           70.18       36.82       45.6        
H           72.57       40.95       47.15       
H           75.72       36.46       44.03       
H           75.06       40.91       46.21       
H           67.11       41.0        49.03       
H           67.96       36.7        46.64       
H           69.1        42.71       47.91       
H           70.63       42.47       47.16       
H           69.13766    41.97913    46.27898    
H           71.11       41.67       49.36       
H           69.55       41.46       50.05       
H           70.64289    40.09073    50.00227    
H           72.22       34.93       45.65       
H           73.87       34.99       45.31       
H           73.42278    35.74336    46.75868    
H           71.69       36.08       43.37       
H           73.43       35.85       43.1        
H           72.56742    37.439      42.8677     
H           64.36       40.04       49.51       
H           78.33       37.18       43.68       
S           65.14       36.88       47.8        
C           64.84       39.22       48.95       
C           64.15       38.09       48.68       
C           82.94       39.77       43.29       
C           82.37       38.48       43.43       
C           82.05       40.77       43.51       
N           82.9        37.3        43.23       
N           80.75       36.92       43.9        
O           81.98       36.38       43.69       
H           79.94       41.29       43.89       
H           82.38       41.83       43.52       
C           80.68       40.51       43.77       
C           81.01       38.24       43.75       
C           80.09       39.3        43.98       
C           98.5        45.38       42.6        
C           97.41       46.18       42.99       
S           97.97       43.76       42.2        
C           91.73       44.17       43.06       
C           92.74       43.17       42.8        
C           92.34       41.79       42.57       
C           91.07       41.49       42.27       
C           90.04       42.49       42.51       
C           90.4        43.77       43.02       
C           90.44       40.1        42.05       
C           88.93       40.4        42.18       
C           88.73       41.81       42.37       
C           92.34       45.56       43.3        
C           93.8        45.24       43.12       
C           94.0        43.86       42.82       
C           87.85       39.5        42.22       
C           86.6        40.0        42.58       
C           86.44       41.41       42.8        
C           87.51       42.3        42.66       
C           94.92       46.06       43.21       
C           96.16       45.47       42.98       
C           96.35       44.13       42.64       
C           95.21       43.29       42.58       
C           90.93       39.2        43.17       
C           90.79       39.57       40.67       
C           92.1        46.04       44.76       
C           91.81       46.57       42.25       
H           89.68       44.52       43.3        
H           93.12       41.1        42.46       
H           94.82       47.15       43.38       
H           95.33       42.25       42.33       
H           88.05       38.42       42.15       
H           87.33       43.35       42.85       
H           92.01       39.44       43.32       
H           90.75       38.12       42.92       
H           90.37234    39.34824    44.09474    
H           91.84       39.6        40.41       
H           90.59       38.53       40.61       
H           90.21239    40.06308    39.88812    
H           92.15       46.2        41.28       
H           90.77       46.43       42.18       
H           92.12019    47.60631    42.38395    
H           91.61       46.95       44.78       
H           91.35       45.38       45.15       
H           92.93852    46.04       45.4564     
H           85.28       38.29       42.59       
H           97.6        47.21       43.26       
S           84.72       41.83       43.02       
C           85.4        39.36       42.8        
C           84.31       40.13       43.05       
C           102.89      45.75       42.57       
C           102.04      46.74       43.23       
C           102.17      44.73       41.96       
N           102.35      47.9        43.88       
N           100.16      47.65       44.0        
O           101.23      48.41       44.47       
H           100.37      43.84       41.43       
H           102.8       44.01       41.47       
C           100.72      44.66       42.02       
C           100.61      46.6        43.33       
C           99.93       45.56       42.66       
C           119.42      44.19       42.93       
C           118.58      43.37       42.2        
S           118.37      45.3        43.82       
C           112.56      44.16       41.66       
C           113.22      45.11       42.54       
C           112.5       46.22       43.03       
C           111.15      46.31       42.79       
C           110.49      45.15       42.24       
C           111.2       44.17       41.57       
C           110.24      47.51       42.87       
C           108.92      46.81       42.68       
C           109.08      45.45       42.25       
C           113.61      43.37       40.89       
C           114.92      43.72       41.56       
C           114.6       44.75       42.54       
C           107.67      47.43       42.78       
C           106.59      46.58       42.61       
C           106.74      45.26       42.02       
C           108.01      44.7        41.73       
C           116.16      43.17       41.39       
C           117.18      43.69       42.17       
C           116.89      44.81       43.02       
C           115.64      45.33       43.2        
C           110.63      48.54       41.74       
C           110.27      48.13       44.33       
C           113.52      43.89       39.44       
C           113.36      41.81       41.07       
H           110.75      43.31       41.08       
H           113.13      46.94       43.51       
H           116.34      42.35       40.75       
H           115.53      46.22       43.8        
H           107.52      48.42       43.14       
H           108.18      43.69       41.38       
H           110.5       49.6        42.04       
H           111.72      48.44       41.64       
H           110.29212   48.29363    40.7334     
H           111.27      48.55       44.39       
H           109.56      48.98       44.37       
H           110.1799    47.42306    45.15476    
H           112.51      41.47       40.48       
H           114.2       41.3        40.7        
H           113.23396   41.52826    42.11539    
H           112.95      43.21       38.77       
H           112.84      44.75       39.46       
H           114.41184   44.22084    38.90777    
H           104.75      47.73       43.3        
H           118.89      42.6        41.53       
S           105.18      44.42       41.81       
C           105.16      46.84       42.85       
C           104.33      45.86       42.42       
C           123.77      44.04       43.25       
C           123.03      45.12       43.88       
C           123.05      43.15       42.59       
N           123.54      46.19       44.53       
N           121.22      46.37       44.49       
O           122.4       46.92       44.83       
H           121.12      42.39       42.01       
H           123.57      42.34       42.1        
C           121.6       43.24       42.57       
C           121.61      45.23       43.79       
C           120.85      44.24       43.04       
C           140.09      42.85       40.9        
C           139.29      41.75       41.01       
S           139.28      44.35       41.23       
C           133.44      42.25       42.53       
C           134.13      43.48       42.4        
C           133.51      44.74       42.34       
C           132.06      44.78       42.55       
C           131.4       43.53       42.61       
C           132.08      42.3        42.59       
C           131.17      45.93       42.97       
C           129.82      45.18       42.85       
C           129.99      43.76       42.87       
C           134.36      41.02       42.4        
C           135.65      41.72       42.02       
C           135.5       43.13       42.17       
C           128.55      45.7        42.97       
C           127.48      44.82       43.12       
C           127.65      43.43       43.13       
C           128.89      42.89       43.05       
C           136.91      41.22       41.74       
C           137.96      42.11       41.42       
C           137.78      43.48       41.52       
C           136.54      44.0        41.92       
C           131.24      47.06       41.87       
C           131.51      46.44       44.39       
C           133.94      40.18       41.19       
C           134.49      40.25       43.74       
H           131.51      41.42       42.7        
H           134.05      45.65       42.24       
H           137.11      40.12       41.58       
H           136.34      45.09       42.05       
H           128.43      46.78       42.79       
H           128.99      41.84       43.04       
H           132.24      47.25       41.48       
H           130.74      46.57       40.97       
H           130.745     47.99905    42.1175     
H           132.43      46.98       44.36       
H           130.8       47.19       44.78       
H           131.64551   45.62694    45.10321    
H           133.88      39.37       43.63       
H           135.51      39.99       43.81       
H           134.05529   40.81091    44.56735    
H           132.89      39.88       41.36       
H           134.47      39.3        41.11       
H           133.95418   40.72608    40.24677    
H           125.77      46.14       43.02       
H           139.65      40.76       40.79       
S           126.08      42.58       43.24       
C           126.1       45.15       43.08       
C           125.21      44.12       43.15       
C           144.23      43.26       39.48       
C           143.69      41.99       39.93       
C           143.33      44.27       39.56       
N           144.27      40.76       39.96       
N           142.16      40.53       40.62       
O           143.33      39.91       40.43       
H           141.46      45.04       39.94       
H           143.63      45.27       39.24       
C           141.99      44.12       40.01       
C           142.39      41.83       40.4        
C           141.49      42.94       40.52       
C           160.1       46.44       39.56       
C           159.64      45.56       40.45       
S           158.9       47.67       39.26       
C           153.68      44.99       41.56       
C           154.05      46.23       40.96       
C           153.21      46.97       40.17       
C           151.87      46.55       40.03       
C           151.47      45.37       40.77       
C           152.39      44.59       41.48       
C           150.88      46.92       38.94       
C           149.77      45.91       39.23       
C           150.16      44.95       40.27       
C           154.91      44.27       42.11       
C           156.05      45.19       41.64       
C           155.54      46.33       41.0        
C           148.55      45.83       38.62       
C           147.69      44.85       39.11       
C           148.06      43.89       40.06       
C           149.33      43.92       40.68       
C           157.41      44.9        41.62       
C           158.22      45.66       40.78       
C           157.7       46.85       40.21       
C           156.39      47.25       40.39       
C           151.65      46.75       37.62       
C           150.24      48.33       39.01       
C           155.07      42.81       41.6        
C           154.95      44.27       43.66       
H           152.1       43.65       41.94       
H           153.61      47.77       39.53       
H           157.78      44.03       42.25       
H           155.97      48.15       39.89       
H           148.25      46.58       37.87       
H           149.59      43.2        41.45       
H           151.37      47.56       36.96       
H           152.71      46.99       37.7        
H           151.6009    45.73996    37.21318    
H           151.05      49.06       38.97       
H           149.56      48.39       38.08       
H           149.73647   48.5458     39.95233    
H           155.89      43.81       43.95       
H           155.05      45.25       44.11       
H           154.0831    43.81413    44.13829    
H           154.2       42.32       41.94       
H           155.86      42.41       42.19       
H           155.22475   42.72894    40.52409    
H           145.75      45.37       38.15       
H           160.2       44.72       40.79       
S           146.82      42.73       40.29       
C           146.32      44.62       38.75       
C           145.64      43.52       39.28       
C           164.1       47.0        37.96       
C           163.84      45.93       38.85       
C           163.09      47.81       37.64       
N           164.63      44.98       39.38       
N           162.57      44.68       40.19       
O           163.88      44.22       40.22       
H           160.96      48.27       37.84       
H           163.39      48.74       37.11       
C           161.76      47.62       38.13       
C           162.51      45.68       39.33       
C           161.4       46.53       38.95       
C           179.53      52.46       35.13       
C           178.64      53.25       35.74       
S           178.75      51.02       34.45       
C           172.7       51.69       36.14       
C           173.57      50.73       35.46       
C           173.02      49.53       35.02       
C           171.77      49.09       35.49       
C           170.88      49.99       36.21       
C           171.34      51.34       36.45       
C           171.15      47.73       35.38       
C           169.88      47.9        36.2        
C           169.63      49.23       36.43       
C           173.42      53.02       36.42       
C           174.91      52.64       36.16       
C           174.88      51.34       35.46       
C           168.91      46.93       36.43       
C           167.64      47.34       36.9        
C           167.45      48.72       37.1        
C           168.44      49.65       36.97       
C           176.02      53.42       36.27       
C           177.24      52.91       35.69       
C           177.14      51.57       34.99       
C           176.0       50.8        34.88       
C           172.02      46.66       36.0        
C           170.58      47.33       33.98       
C           173.36      53.52       37.89       
C           173.07      54.18       35.45       
H           170.71      52.01       36.94       
H           173.6       48.82       34.44       
H           176.16      54.43       36.65       
H           175.96      50.0        34.15       
H           169.16      45.88       36.44       
H           168.25      50.68       37.21       
H           173.08      46.66       35.59       
H           171.67      45.7        35.89       
H           172.11782   46.84866    37.06908    
H           170.04      48.16       33.61       
H           169.83      46.49       34.12       
H           171.43158   47.01703    33.37589    
H           173.52      55.05       35.89       
H           173.43      53.96       34.44       
H           172.00413   54.32601    35.27479    
H           172.36      53.75       38.23       
H           173.76      54.51       38.05       
H           173.84183   52.83566    38.5883     
H           166.45      45.5        37.14       
H           178.95      54.18       36.26       
S           165.77      49.01       37.55       
C           166.52      46.59       37.29       
C           165.44      47.31       37.48       
C           183.96      52.0        35.78       
C           183.33      51.66       34.57       
C           183.01      52.5        36.71       
N           183.89      51.23       33.47       
N           181.64      51.33       33.09       
O           182.86      50.93       32.67       
H           181.05      53.24       37.27       
H           183.37      52.8        37.69       
C           181.64      52.78       36.42       
C           181.91      51.84       34.27       
C           181.01      52.4        35.28       
C           199.75      48.44       40.19       
C           199.02      49.49       40.67       
S           198.8       47.46       39.15       
C           193.33      50.88       38.83       
C           193.95      49.75       38.12       
C           193.23      48.97       37.26       
C           191.93      49.38       37.01       
C           191.32      50.48       37.68       
C           191.99      51.16       38.66       
C           190.84      48.73       36.09       
C           189.65      49.73       36.26       
C           189.9       50.61       37.32       
C           194.33      51.53       39.81       
C           195.55      50.58       39.65       
C           195.28      49.54       38.71       
C           188.48      49.78       35.55       
C           187.49      50.7        35.91       
C           187.71      51.58       36.97       
C           188.91      51.5        37.72       
C           196.74      50.63       40.34       
C           197.74      49.67       40.08       
C           197.43      48.61       39.19       
C           196.21      48.54       38.5        
C           190.49      47.27       36.7        
C           191.37      48.63       34.64       
C           193.81      51.5        41.28       
C           194.82      53.01       39.42       
H           191.51      52.01       39.18       
H           193.72      48.0        36.96       
H           196.89      51.4        41.05       
H           196.07      47.77       37.79       
H           188.42      49.26       34.59       
H           189.0       52.3        38.47       
H           191.31      46.57       36.71       
H           190.0       47.21       37.64       
H           189.64195   46.79651    36.20531    
H           192.39      48.36       34.55       
H           190.94      47.88       34.08       
H           191.29949   49.51843    34.01246    
H           195.7       53.31       39.99       
H           194.99      53.0        38.35       
H           194.03431   53.73855    39.61999    
H           192.86      52.06       41.4        
H           194.45      52.01       41.99       
H           193.73079   50.4558     41.58246    
H           185.82      50.19       34.49       
H           199.54      50.23       41.39       
S           186.25      52.49       37.29       
C           186.13      50.78       35.34       
C           185.39      51.67       36.01       
C           204.03      47.44       40.81       
C           203.51      48.78       41.02       
C           203.01      46.61       40.35       
N           204.13      49.81       41.57       
N           201.96      50.37       41.26       
O           203.26      50.88       41.43       
H           201.0       46.16       39.81       
H           203.37      45.62       40.01       
C           201.58      46.96       40.2        
C           202.13      49.11       40.95       
C           201.13      48.16       40.47       
H           6.83        50.35       30.66       
H           205.0       47.1        41.2        
