612

C           70.04       21.37       30.63       
C           68.82       21.76       31.08       
S           71.21       21.24       31.97       
C           67.8        22.24       37.08       
C           69.02       21.65       36.67       
C           70.06       21.45       37.6        
C           69.92       21.89       38.93       
C           68.68       22.45       39.29       
C           67.62       22.66       38.45       
C           70.96       22.04       40.13       
C           70.01       22.6        41.2        
C           68.69       22.85       40.69       
C           66.84       22.45       35.86       
C           67.83       22.06       34.72       
C           69.1        21.53       35.24       
C           70.35       23.01       42.48       
C           69.35       23.59       43.36       
C           68.09       23.83       42.81       
C           67.68       23.38       41.56       
C           67.58       21.99       33.35       
C           68.73       21.84       32.5        
C           69.97       21.53       33.08       
C           70.16       21.27       34.4        
C           72.18       23.0        39.93       
C           71.47       20.72       40.66       
C           66.5        23.95       35.6        
C           65.59       21.57       35.96       
H           66.72       23.06       38.87       
H           70.97       20.99       37.31       
H           66.57       22.15       32.91       
H           71.16       21.06       34.76       
H           71.36       22.83       42.82       
H           66.67       23.48       41.09       
H           72.67       22.49       39.09       
H           72.9        23.03       40.78       
H           71.83158    23.96705    39.56736    
H           70.6        20.05       40.87       
H           72.04       20.86       41.62       
H           72.10055    20.13961    39.98646    
H           64.87       22.09       36.59       
H           65.23       21.43       34.96       
H           65.80216    20.62236    36.45504    
H           66.05       24.28       36.56       
H           65.8        24.02       34.75       
H           67.37917    24.58382    35.48414    
H           70.3        23.77       45.35       
H           67.96       21.87       30.42       
S           67.06       24.73       43.94       
C           69.44       24.01       44.72       
C           68.29       24.56       45.23       
C           71.05       20.73       26.4        
C           72.02       20.57       27.45       
C           69.77       20.98       26.91       
N           73.29       20.34       27.27       
N           72.93       20.54       29.51       
O           73.82       20.23       28.53       
H           68.51       21.29       28.49       
H           68.94       21.03       26.22       
C           69.57       21.14       28.29       
C           71.79       20.71       28.84       
C           70.47       20.98       29.3        
C           73.6        21.94       10.08       
C           72.3        22.01       10.55       
S           74.67       21.21       11.24       
C           70.99       21.22       16.37       
C           72.25       20.78       15.92       
C           73.19       20.27       16.78       
C           72.88       20.27       18.13       
C           71.59       20.63       18.57       
C           70.62       21.17       17.71       
C           73.78       19.81       19.29       
C           72.84       20.02       20.45       
C           71.6        20.5        20.07       
C           70.07       21.54       15.13       
C           71.18       21.66       14.08       
C           72.35       21.05       14.52       
C           73.11       19.75       21.78       
C           72.23       20.15       22.79       
C           71.0        20.78       22.41       
C           70.64       20.86       21.07       
C           71.06       21.92       12.74       
C           72.21       21.72       11.95       
C           73.44       21.28       12.47       
C           73.52       20.93       13.81       
C           74.96       20.81       19.36       
C           74.24       18.41       19.36       
C           69.39       22.98       15.39       
C           68.94       20.59       14.67       
H           69.68       21.5        18.07       
H           74.19       19.93       16.45       
H           70.21       22.38       12.33       
H           74.38       20.48       14.25       
H           74.11       19.4        22.12       
H           69.66       21.24       20.76       
H           75.61       20.63       18.48       
H           75.58       20.57       20.32       
H           74.67326    21.86138    19.38206    
H           73.39       17.77       19.6        
H           74.95       18.43       20.14       
H           74.70683    17.99194    18.46815    
H           68.23       21.03       13.97       
H           69.41       19.72       14.17       
H           68.29056    20.16426    15.4349     
H           68.3        22.89       15.04       
H           69.56       23.27       16.45       
H           69.95491    23.78804    14.9252     
H           73.13       19.61       24.79       
H           71.56       22.49       9.88        
S           69.96       21.0        23.83       
C           72.31       20.04       24.24       
C           71.25       20.57       24.96       
C           75.36       22.86       6.06        
C           73.94       23.14       6.44        
C           75.99       22.31       7.12        
N           73.06       23.73       5.62        
N           72.04       23.19       7.64        
O           71.9        23.74       6.37        
H           76.01       21.55       9.06        
H           77.04       21.99       7.05        
C           75.3        22.05       8.35        
C           73.32       22.87       7.65        
C           74.03       22.3        8.74        
C           84.43       24.33       -7.92       
C           84.88       24.29       -6.68       
S           82.7        24.45       -7.89       
C           81.56       23.92       -1.61       
C           80.8        24.04       -2.72       
C           79.43       24.08       -2.72       
C           78.82       23.93       -1.42       
C           79.62       23.7        -0.32       
C           81.0        23.72       -0.4        
C           77.34       23.92       -1.09       
C           77.41       23.76       0.4         
C           78.75       23.61       0.9         
C           83.04       24.38       -1.85       
C           83.06       23.95       -3.35       
C           81.71       24.04       -3.87       
C           76.31       23.76       1.22        
C           76.49       23.54       2.56        
C           77.8        23.36       3.09        
C           78.95       23.36       2.28        
C           84.13       24.15       -4.24       
C           83.91       24.28       -5.64       
C           82.59       24.3        -6.18       
C           81.54       24.18       -5.24       
C           76.84       22.7        -1.9        
C           76.55       25.16       -1.57       
C           84.04       23.52       -1.04       
C           83.2        25.91       -1.72       
H           81.53       23.72       0.51        
H           78.82       24.32       -3.59       
H           85.13       24.12       -3.91       
H           80.53       24.26       -5.62       
H           75.34       23.79       0.85        
H           79.92       23.26       2.72        
H           76.5        22.93       -2.89       
H           77.64       22.01       -2.21       
H           76.1122     22.02928    -1.44334    
H           76.81       25.18       -2.71       
H           75.52       24.92       -1.49       
H           76.83434    26.09831    -1.09374    
H           84.25       26.12       -1.57       
H           82.98       26.39       -2.67       
H           82.61392    26.31803    -0.89652    
H           84.96       23.99       -1.15       
H           83.8        23.6        0.04        
H           84.12095    22.46766    -1.31228    
H           74.48       23.38       3.24        
H           85.95       24.02       -6.44       
S           77.73       23.23       4.79        
C           75.49       23.41       3.58        
C           76.01       23.16       4.83        
C           86.75       25.23       -11.58      
C           85.5        24.59       -11.66      
C           87.21       25.28       -10.32      
N           84.86       24.08       -12.67      
N           83.57       23.77       -10.87      
O           83.64       23.73       -12.24      
H           87.03       25.11       -8.21       
H           88.26       25.55       -10.2       
C           86.47       24.98       -9.12       
C           84.66       24.31       -10.45      
C           85.18       24.48       -9.13       
C           97.4        30.88       -23.04      
C           97.48       31.24       -21.83      
S           95.95       30.05       -23.46      
C           93.73       29.09       -17.62      
C           93.31       28.88       -18.94      
C           92.19       28.18       -19.29      
C           91.44       27.67       -18.21      
C           91.85       27.88       -16.86      
C           93.02       28.55       -16.61      
C           90.03       26.94       -18.33      
C           89.81       26.73       -16.89      
C           90.78       27.37       -16.04      
C           95.04       29.82       -17.48      
C           95.33       30.06       -18.96      
C           94.32       29.51       -19.8       
C           88.74       26.08       -16.3       
C           88.53       26.05       -14.92      
C           89.47       26.72       -14.12      
C           90.7        27.29       -14.65      
C           96.42       30.75       -19.51      
C           96.51       30.71       -20.95      
C           95.54       30.07       -21.75      
C           94.44       29.45       -21.19      
C           90.08       25.65       -19.05      
C           88.92       27.91       -18.9       
C           96.09       28.86       -16.81      
C           95.03       31.11       -16.65      
H           93.48       28.75       -15.6       
H           92.01       27.93       -20.35      
H           97.09       31.25       -18.89      
H           93.74       28.98       -21.86      
H           88.17       25.47       -17.0       
H           91.35       27.78       -13.92      
H           89.1        25.24       -19.09      
H           90.24       25.81       -20.08      
H           90.80751    24.95923    -18.62378   
H           89.07       28.15       -19.91      
H           87.94       27.49       -18.72      
H           88.913      28.87636    -18.39581   
H           95.18       30.88       -15.61      
H           95.74       31.74       -17.11      
H           94.07805    31.64048    -16.6718    
H           95.65       28.36       -15.9       
H           96.9        29.57       -16.4       
H           96.40698    28.05377    -17.47152   
H           86.7        24.85       -14.46      
H           98.34       31.77       -21.49      
S           89.08       26.58       -12.41      
C           87.5        25.43       -14.06      
C           87.65       25.63       -12.7       
C           100.44      30.78       -26.35      
C           100.71      31.46       -25.09      
C           99.14       30.39       -26.42      
N           101.84      32.0        -24.69      
N           100.33      32.17       -22.99      
O           101.64      32.39       -23.34      
H           97.23       30.14       -25.6       
H           98.84       29.94       -27.36      
C           98.16       30.58       -25.39      
C           99.71       31.6        -24.03      
C           98.39       31.06       -24.16      
C           110.27      22.17       -36.77      
C           108.89      22.02       -36.74      
S           110.87      23.23       -35.53      
C           105.36      25.38       -33.06      
C           106.77      25.59       -32.92      
C           107.28      26.49       -31.9       
C           106.37      27.23       -31.13      
C           105.01      26.99       -31.31      
C           104.46      26.13       -32.29      
C           106.67      28.19       -30.0       
C           105.23      28.56       -29.68      
C           104.29      27.81       -30.37      
C           105.05      24.36       -34.17      
C           106.43      24.02       -34.61      
C           107.44      24.77       -33.85      
C           104.79      29.39       -28.7       
C           103.44      29.55       -28.39      
C           102.48      28.69       -29.06      
C           102.91      27.72       -30.03      
C           106.87      22.97       -35.44      
C           108.25      22.86       -35.78      
C           109.18      23.58       -35.02      
C           108.83      24.46       -33.99      
C           107.38      29.46       -30.36      
C           107.36      27.66       -28.74      
C           104.33      25.17       -35.32      
C           104.17      23.16       -33.75      
H           103.34      26.05       -32.39      
H           108.36      26.6        -31.81      
H           106.18      22.41       -35.99      
H           109.62      25.0        -33.45      
H           105.46      30.05       -28.19      
H           102.26      27.11       -30.6       
H           108.38      29.25       -30.61      
H           107.42      29.97       -29.45      
H           106.86198   30.11285    -31.06252   
H           108.37      27.81       -28.97      
H           107.13      28.16       -27.87      
H           107.26731   26.58335    -28.5974    
H           103.12      23.37       -33.67      
H           104.38      22.23       -34.32      
H           104.51759   22.70379    -32.82309   
H           103.43      25.71       -34.94      
H           105.03      25.97       -35.65      
H           103.93247   24.5484     -36.1223    
H           103.4       31.06       -26.74      
H           108.33      21.42       -37.43      
S           100.88      29.08       -28.48      
C           102.82      30.35       -27.38      
C           101.4       30.28       -27.31      
C           113.34      19.95       -39.05      
C           111.92      19.7        -39.22      
C           113.63      21.01       -38.21      
N           111.31      18.77       -39.87      
N           109.68      20.03       -38.94      
O           109.93      18.92       -39.79      
H           112.96      22.6        -36.91      
H           114.66      21.34       -38.1       
C           112.62      21.77       -37.49      
C           110.95      20.51       -38.58      
C           111.26      21.51       -37.62      
C           123.24      6.98        -42.04      
C           123.09      7.58        -40.8       
S           122.41      7.9         -43.28      
C           120.32      12.95       -40.03      
C           120.18      12.34       -41.29      
C           119.27      12.87       -42.28      
C           118.47      13.93       -41.95      
C           118.72      14.62       -40.72      
C           119.51      14.07       -39.7       
C           117.23      14.54       -42.68      
C           116.89      15.73       -41.78      
C           117.72      15.73       -40.58      
C           121.29      12.08       -39.18      
C           121.48      10.92       -40.07      
C           120.97      11.14       -41.36      
C           115.89      16.64       -41.98      
C           115.52      17.47       -40.88      
C           116.39      17.6        -39.78      
C           117.53      16.77       -39.64      
C           122.09      9.72        -39.84      
C           122.32      8.82        -40.87      
C           121.86      9.12        -42.19      
C           121.13      10.25       -42.39      
C           116.09      13.47       -42.82      
C           117.73      15.05       -44.05      
C           120.71      11.75       -37.8       
C           122.65      12.81       -39.04      
H           119.49      14.55       -38.72      
H           119.07      12.42       -43.24      
H           122.43      9.43        -38.84      
H           120.74      10.42       -43.34      
H           115.25      16.64       -42.83      
H           118.12      16.86       -38.74      
H           116.49      12.51       -43.2       
H           115.68      13.22       -41.85      
H           115.30731   13.79269    -43.50657   
H           118.28      14.28       -44.61      
H           117.03      15.51       -44.72      
H           118.4782    15.82617    -43.88917   
H           123.38      12.37       -38.39      
H           123.2       12.83       -39.96      
H           122.56298   13.87598    -38.82971   
H           121.43      11.2        -37.14      
H           120.57      12.67       -37.27      
H           119.72027   11.30142    -37.88544   
H           113.5       18.3        -41.32      
H           123.44      7.16        -39.9       
S           115.84      18.84       -38.66      
C           114.39      18.35       -40.69      
C           114.39      19.09       -39.57      
C           125.8       3.5         -43.15      
C           125.93      4.22        -41.95      
C           124.87      4.14        -43.99      
N           126.69      3.97        -40.87      
N           125.49      5.85        -40.42      
O           126.4       4.99        -39.97      
H           123.24      5.55        -44.37      
H           124.77      3.78        -44.94      
C           123.97      5.21        -43.58      
C           125.13      5.4         -41.62      
C           124.09      5.87        -42.4       
C           127.27      -12.8       -45.97      
C           126.84      -11.91      -46.88      
S           127.62      -11.99      -44.4       
C           127.56      -5.77       -46.24      
C           127.87      -6.55       -45.11      
C           128.22      -5.94       -43.91      
C           128.13      -4.56       -43.8       
C           127.82      -3.79       -44.94      
C           127.69      -4.35       -46.16      
C           128.2       -3.67       -42.55      
C           128.03      -2.28       -43.17      
C           127.69      -2.36       -44.51      
C           126.97      -6.65       -47.33      
C           127.25      -8.08       -46.79      
C           127.68      -7.98       -45.43      
C           128.0       -1.06       -42.54      
C           127.51      0.13        -43.16      
C           127.19      0.0         -44.56      
C           127.33      -1.19       -45.27      
C           126.81      -9.35       -47.26      
C           126.97      -10.49      -46.44      
C           127.47      -10.4       -45.1       
C           127.72      -9.11       -44.6       
C           129.62      -4.01       -42.04      
C           127.14      -3.9        -41.47      
C           127.62      -6.43       -48.74      
C           125.41      -6.44       -47.39      
H           127.28      -3.82       -46.99      
H           128.41      -6.55       -43.03      
H           126.35      -9.45       -48.22      
H           127.96      -9.11       -43.56      
H           128.37      -0.97       -41.54      
H           126.98      -1.14       -46.29      
H           129.62      -4.93       -41.5       
H           130.36      -3.98       -42.79      
H           129.90738   -3.34185    -41.22816   
H           127.32      -4.87       -41.03      
H           127.23      -3.16       -40.76      
H           126.10338   -3.87017    -41.8056    
H           125.29      -5.47       -47.99      
H           125.04      -7.27       -48.03      
H           124.92741   -6.34064    -46.41772   
H           127.05      -5.61       -49.28      
H           127.43      -7.18       -49.46      
H           128.67006   -6.14998    -48.65599   
H           127.06      1.62        -41.6       
H           126.32      -12.14      -47.8       
S           126.52      1.55        -45.14      
C           127.13      1.44        -42.62      
C           126.48      2.24        -43.52      
C           127.09      -17.2       -46.36      
C           126.46      -16.29      -47.29      
C           127.74      -16.47      -45.36      
N           125.65      -16.67      -48.27      
N           125.54      -14.38      -48.08      
O           125.15      -15.44      -48.82      
H           128.31      -14.66      -44.32      
H           128.36      -17.03      -44.62      
C           127.78      -15.03      -45.18      
C           126.45      -14.86      -47.19      
C           127.17      -14.26      -46.11      
C           136.63      -29.18      -51.42      
C           136.0       -28.39      -52.29      
S           136.48      -28.67      -49.73      
C           131.95      -24.27      -50.25      
C           132.68      -24.95      -49.25      
C           132.41      -24.82      -47.92      
C           131.29      -24.08      -47.49      
C           130.56      -23.45      -48.48      
C           130.93      -23.46      -49.84      
C           130.67      -23.73      -46.14      
C           129.68      -22.68      -46.47      
C           129.58      -22.6       -47.86      
C           132.54      -24.62      -51.61      
C           133.58      -25.67      -51.29      
C           133.63      -25.84      -49.88      
C           129.09      -21.7       -45.67      
C           128.32      -20.66      -46.25      
C           128.22      -20.7       -47.65      
C           128.83      -21.64      -48.47      
C           134.34      -26.47      -52.11      
C           135.2       -27.43      -51.59      
C           135.32      -27.45      -50.17      
C           134.59      -26.66      -49.28      
C           131.72      -23.15      -45.14      
C           130.05      -25.1       -45.6       
C           133.14      -23.37      -52.27      
C           131.46      -25.3       -52.6       
H           130.31      -22.93      -50.54      
H           132.95      -25.35      -47.2       
H           134.22      -26.3       -53.15      
H           134.62      -26.77      -48.24      
H           129.17      -21.8       -44.56      
H           128.73      -21.56      -49.56      
H           131.24      -23.04      -44.16      
H           132.46      -23.84      -44.84      
H           132.34065   -22.33892   -45.52085   
H           130.76      -25.56      -44.84      
H           129.19      -24.91      -45.02      
H           129.85348   -25.84395   -46.37202   
H           130.88      -24.57      -53.17      
H           131.92      -25.94      -53.39      
H           130.77974   -25.94408   -52.04277   
H           132.4       -22.62      -52.66      
H           133.69      -23.68      -53.18      
H           133.77234   -22.80233   -51.58736   
H           127.89      -19.32      -44.61      
H           136.11      -28.49      -53.36      
S           127.28      -19.27      -48.16      
C           127.68      -19.54      -45.65      
C           127.19      -18.64      -46.55      
C           139.39      -32.67      -51.79      
C           139.16      -31.81      -52.89      
C           138.63      -32.39      -50.71      
N           139.73      -31.81      -54.07      
N           138.18      -30.08      -53.96      
O           139.17      -30.72      -54.71      
H           137.26      -31.17      -49.69      
H           138.71      -32.98      -49.81      
C           137.69      -31.28      -50.64      
C           138.23      -30.71      -52.76      
C           137.57      -30.36      -51.59      
C           145.34      -48.25      -50.19      
C           144.75      -47.56      -49.14      
S           145.18      -47.36      -51.72      
C           142.73      -41.87      -49.65      
C           143.21      -42.43      -50.86      
C           143.03      -41.66      -52.05      
C           142.71      -40.34      -51.99      
C           142.35      -39.74      -50.76      
C           142.18      -40.54      -49.63      
C           142.8       -39.27      -53.14      
C           142.04      -38.17      -52.45      
C           141.96      -38.3       -51.02      
C           143.03      -42.75      -48.44      
C           143.54      -44.01      -49.21      
C           143.71      -43.76      -50.57      
C           141.67      -36.97      -53.04      
C           141.09      -35.93      -52.24      
C           141.19      -36.08      -50.84      
C           141.56      -37.3       -50.16      
C           143.93      -45.22      -48.61      
C           144.39      -46.26      -49.5       
C           144.53      -45.98      -50.92      
C           144.19      -44.72      -51.47      
C           142.12      -39.77      -54.45      
C           144.24      -38.81      -53.49      
C           141.89      -43.26      -47.59      
C           144.23      -42.13      -47.61      
H           141.99      -40.12      -48.69      
H           143.34      -42.13      -52.99      
H           143.78      -45.37      -47.53      
H           144.27      -44.43      -52.53      
H           141.8       -36.85      -54.08      
H           141.5       -37.33      -49.1       
H           142.79      -40.59      -54.88      
H           142.16      -38.97      -55.2       
H           141.07891   -40.0375    -54.26925   
H           144.56      -38.03      -52.73      
H           144.33      -38.39      -54.48      
H           144.94953   -39.63305   -53.40486   
H           144.75      -42.88      -46.96      
H           144.99      -41.7       -48.36      
H           143.85048   -41.31257   -46.99692   
H           141.32      -42.45      -47.07      
H           142.36      -43.71      -46.74      
H           141.21745   -43.98109   -48.05455   
H           140.35      -34.58      -53.8       
H           144.8       -47.87      -48.16      
S           140.67      -34.55      -50.18      
C           140.55      -34.72      -52.74      
C           140.16      -33.86      -51.71      
C           148.08      -51.74      -49.91      
C           147.08      -51.42      -48.89      
C           147.81      -51.09      -51.13      
N           147.02      -51.82      -47.65      
N           145.27      -50.35      -47.88      
O           145.93      -51.21      -47.08      
H           147.06      -49.35      -52.03      
H           148.46      -51.32      -51.95      
C           146.86      -50.02      -51.19      
C           146.1       -50.38      -48.94      
C           146.04      -49.58      -50.12      
C           162.79      -58.37      -47.5       
C           162.34      -58.19      -48.77      
S           161.38      -58.72      -46.5       
C           156.67      -56.78      -50.32      
C           156.75      -57.46      -49.1       
C           155.65      -57.54      -48.19      
C           154.46      -56.79      -48.43      
C           154.43      -56.09      -49.67      
C           155.47      -56.09      -50.57      
C           153.41      -56.44      -47.41      
C           152.51      -55.73      -48.4       
C           153.15      -55.4       -49.63      
C           157.97      -56.8       -51.1       
C           158.91      -57.39      -50.07      
C           158.22      -57.83      -48.9       
C           151.29      -55.27      -48.14      
C           150.73      -54.37      -49.01      
C           151.32      -54.05      -50.18      
C           152.59      -54.57      -50.57      
C           160.28      -57.67      -50.14      
C           160.97      -58.0       -48.99      
C           160.28      -58.35      -47.84      
C           158.88      -58.16      -47.74      
C           154.08      -55.53      -46.37      
C           152.79      -57.69      -46.69      
C           158.58      -55.45      -51.46      
C           157.99      -57.91      -52.22      
H           155.49      -55.56      -51.53      
H           155.84      -58.06      -47.21      
H           160.83      -57.47      -51.01      
H           158.35      -58.22      -46.84      
H           150.71      -55.46      -47.19      
H           153.08      -54.34      -51.49      
H           154.59      -56.23      -45.78      
H           154.83      -54.89      -46.92      
H           153.4205    -54.89887   -45.77432   
H           153.51      -58.08      -46.0       
H           152.01      -57.32      -46.1       
H           152.28973   -58.41574   -47.33119   
H           158.91      -58.01      -52.63      
H           157.8       -58.8       -51.72      
H           157.18011   -57.83253   -52.94538   
H           157.85      -54.88      -52.12      
H           159.51      -55.66      -51.98      
H           158.81821   -54.92306   -50.53605   
H           148.96      -53.65      -47.85      
H           163.11      -57.94      -49.55      
S           150.42      -52.74      -51.01      
C           149.54      -53.57      -48.78      
C           149.23      -52.66      -49.76      
C           166.82      -57.98      -45.64      
C           166.47      -57.42      -46.9       
C           165.76      -58.78      -45.12      
N           167.26      -56.78      -47.68      
N           165.23      -56.83      -48.72      
O           166.55      -56.46      -48.8       
H           163.64      -59.39      -45.13      
H           165.84      -59.34      -44.23      
C           164.44      -58.92      -45.76      
C           165.2       -57.52      -47.59      
C           164.1       -58.25      -46.96      
H           68.27       25.18       46.13       
H           167.62      -57.46      -45.09      
