612

C           82.93       9.35        36.6        
C           82.73       9.89        37.83       
S           81.92       7.95        36.28       
C           79.94       6.73        42.29       
C           79.87       6.16        40.97       
C           79.27       4.95        40.73       
C           78.71       4.28        41.92       
C           78.94       4.73        43.25       
C           79.51       6.03        43.43       
C           77.94       2.97        41.91       
C           78.04       2.5         43.39       
C           78.61       3.62        44.14       
C           80.36       8.19        42.13       
C           80.91       8.22        40.72       
C           80.46       7.12        40.02       
C           77.68       1.28        44.01       
C           77.91       1.22        45.36       
C           78.34       2.37        46.09       
C           78.68       3.59        45.5        
C           81.56       9.2         40.03       
C           81.83       9.07        38.63       
C           81.39       7.98        37.99       
C           80.64       7.0         38.66       
C           78.46       1.88        40.94       
C           76.44       3.23        41.5        
C           81.51       8.45        43.15       
C           79.24       9.26        42.3        
H           79.72       6.27        44.47       
H           79.36       4.48        39.68       
H           81.96       10.03       40.6        
H           80.46       6.03        38.15       
H           77.22       0.51        43.44       
H           78.93       4.44        46.13       
H           78.4        2.13        39.85       
H           77.8        1.04        41.08       
H           79.47472    1.54659     41.15744    
H           75.9        3.76        42.26       
H           75.89       2.34        41.46       
H           76.24927    3.73617     40.55368    
H           79.0        9.37        43.29       
H           79.57       10.19       41.87       
H           78.29265    9.03969     41.80797    
H           81.2        8.16        44.16       
H           81.71       9.55        43.13       
H           82.40663    7.88333     42.89894    
H           77.26       -0.77       45.87       
H           83.26       10.75       38.19       
S           78.54       2.01        47.85       
C           77.67       0.16        46.29       
C           77.93       0.37        47.65       
C           85.87       10.58       33.51       
C           85.41       11.46       34.54       
C           85.24       9.32        33.57       
N           85.7        12.73       34.77       
N           84.1        12.09       36.19       
O           84.91       13.16       35.78       
H           83.78       7.98        34.4        
H           85.36       8.62        32.75       
C           84.24       8.94        34.54       
C           84.48       11.01       35.48       
C           83.93       9.73        35.6        
C           93.69       17.16       20.35       
C           92.65       17.74       21.14       
S           94.08       15.54       21.0        
C           90.1        14.98       25.91       
C           90.86       14.12       25.1        
C           91.08       12.78       25.59       
C           90.45       12.38       26.72       
C           89.58       13.26       27.42       
C           89.4        14.54       27.03       
C           90.48       11.07       27.48       
C           89.56       11.3        28.66       
C           88.97       12.58       28.51       
C           90.13       16.41       25.43       
C           90.97       16.31       24.16       
C           91.54       14.97       24.13       
C           89.27       10.47       29.73       
C           88.23       10.95       30.57       
C           87.78       12.3        30.49       
C           88.14       13.12       29.43       
C           91.31       17.25       23.22       
C           92.2        16.89       22.17       
C           92.81       15.65       22.21       
C           92.52       14.68       23.16       
C           91.98       10.8        28.02       
C           89.94       9.88        26.63       
C           90.64       17.33       26.59       
C           88.7        16.81       24.91       
H           88.89       15.24       27.63       
H           91.67       12.1        25.04       
H           90.69       18.21       23.12       
H           93.05       13.7        23.16       
H           89.52       9.47        29.73       
H           87.72       14.11       29.35       
H           92.74       10.48       27.24       
H           91.96       9.97        28.76       
H           92.36905    11.54874    28.71002    
H           88.93       10.06       26.27       
H           89.88       8.95        27.22       
H           90.48271    9.56161     25.73995    
H           88.06       16.72       25.78       
H           88.73       17.92       24.58       
H           88.34164    16.10762    24.15745    
H           89.88       17.32       27.41       
H           91.56       16.85       26.99       
H           90.87527    18.36797    26.35473    
H           87.67       9.2         31.92       
H           92.16       18.68       20.89       
S           86.5        12.6        31.65       
C           87.6        10.25       31.62       
C           86.8        11.01       32.4        
C           94.92       18.56       16.36       
C           94.13       19.37       17.22       
C           95.27       17.41       16.95       
N           93.63       20.54       17.01       
N           93.17       19.94       19.1        
O           92.98       20.87       18.16       
H           95.4        16.06       18.67       
H           95.78       16.68       16.36       
C           94.99       16.96       18.31       
C           93.87       18.94       18.57       
C           94.26       17.74       19.2        
C           90.37       15.55       1.29        
C           91.11       14.61       1.99        
S           90.68       17.24       1.81        
C           94.41       16.28       6.95        
C           93.65       17.28       6.35        
C           93.49       18.58       6.88        
C           94.03       18.78       8.16        
C           94.76       17.72       8.81        
C           95.01       16.44       8.22        
C           93.79       20.04       9.0         
C           94.44       19.49       10.29       
C           94.95       18.16       10.16       
C           94.16       14.97       6.22        
C           93.37       15.42       5.01        
C           93.09       16.78       5.09        
C           94.41       20.11       11.52       
C           94.8        19.36       12.66       
C           95.4        18.08       12.48       
C           95.45       17.47       11.22       
C           92.71       14.66       4.08        
C           91.83       15.19       3.11        
C           91.7        16.66       3.17        
C           92.31       17.41       4.13        
C           92.33       20.33       9.09        
C           94.54       21.23       8.4         
C           93.37       13.95       7.05        
C           95.53       14.38       5.72        
H           95.3        15.56       8.8         
H           92.93       19.38       6.25        
H           92.93       13.61       3.97        
H           92.13       18.49       4.31        
H           94.01       21.11       11.68       
H           95.8        16.43       11.11       
H           92.18       21.33       9.45        
H           91.91       20.34       8.07        
H           91.73376    19.62728    9.67205     
H           94.21       21.56       7.42        
H           94.48       22.04       9.13        
H           95.60728    21.01796    8.33639     
H           96.3        14.19       6.46        
H           95.37       13.43       5.16        
H           96.02902    15.00378    4.9784      
H           93.16       13.08       6.45        
H           93.95       13.52       7.77        
H           92.47578    14.3696     7.51087     
H           93.85       20.54       14.35       
H           91.08       13.53       1.8         
S           95.87       17.42       14.05       
C           94.58       19.73       14.07       
C           95.02       18.73       14.9        
C           88.11       14.99       -2.46       
C           88.97       14.0        -2.01       
C           88.18       16.15       -1.72       
N           89.27       12.87       -2.6        
N           90.35       12.96       -0.66       
O           90.19       12.29       -1.8        
H           88.65       17.15       0.11        
H           87.65       17.01       -2.06       
C           88.88       16.31       -0.47       
C           89.69       14.13       -0.8        
C           89.62       15.32       0.08        
C           83.93       18.75       -17.67      
C           83.69       19.61       -16.64      
S           83.92       17.09       -17.17      
C           83.71       18.03       -10.86      
C           83.7        16.93       -11.72      
C           83.96       15.66       -11.3       
C           84.34       15.43       -9.99       
C           84.43       16.48       -9.11       
C           84.0        17.75       -9.53       
C           85.08       14.19       -9.47       
C           85.43       14.61       -8.08       
C           85.05       16.04       -7.88       
C           83.54       19.34       -11.63      
C           83.32       18.83       -13.05      
C           83.5        17.45       -13.1       
C           86.09       13.85       -7.1        
C           86.4        14.58       -5.95       
C           86.11       15.97       -5.79       
C           85.37       16.74       -6.7        
C           83.26       19.61       -14.19      
C           83.5        18.98       -15.41      
C           83.59       17.59       -15.48      
C           83.57       16.77       -14.28      
C           86.45       13.91       -10.25      
C           84.13       12.98       -9.54       
C           84.77       20.28       -11.59      
C           82.31       20.05       -11.08      
H           84.24       18.6        -8.87       
H           84.19       14.92       -12.01      
H           83.13       20.74       -14.15      
H           83.79       15.68       -14.34      
H           86.19       12.74       -7.15       
H           85.01       17.69       -6.44       
H           86.29       13.94       -11.34      
H           87.13       14.76       -10.12      
H           86.93842    12.96755    -10.00235   
H           84.1        12.6        -10.6       
H           84.54       12.2        -8.95       
H           83.15367    13.26506    -9.14804    
H           82.46       20.45       -10.08      
H           82.15       20.97       -11.68      
H           81.36375    19.51865    -11.1819    
H           84.84       20.54       -10.5       
H           84.62       21.24       -12.12      
H           85.77862    19.91323    -11.78044   
H           87.78       13.17       -4.82       
H           83.63       20.62       -16.75      
S           86.69       16.54       -4.27       
C           87.24       14.1        -4.82       
C           87.41       14.98       -3.79       
C           85.77       20.23       -21.43      
C           86.11       18.96       -20.91      
C           84.77       20.84       -20.7       
N           86.98       18.08       -21.38      
N           86.06       17.28       -19.44      
O           86.78       16.97       -20.59      
H           83.52       21.05       -18.96      
H           84.46       21.87       -21.04      
C           84.12       20.34       -19.5       
C           85.45       18.42       -19.69      
C           84.49       19.18       -18.94      
C           97.29       27.56       -30.75      
C           96.43       28.31       -30.01      
S           96.88       25.84       -30.79      
C           91.87       25.94       -26.7       
C           92.61       25.02       -27.52      
C           92.37       23.61       -27.6       
C           91.36       23.19       -26.78      
C           90.68       24.05       -25.87      
C           91.03       25.38       -25.75      
C           90.89       21.76       -26.69      
C           89.7        21.91       -25.77      
C           89.67       23.25       -25.21      
C           92.58       27.31       -26.71      
C           93.66       27.05       -27.77      
C           93.64       25.74       -28.28      
C           88.8        20.93       -25.36      
C           87.9        21.2        -24.32      
C           87.87       22.49       -23.71      
C           88.76       23.46       -24.2       
C           94.6        27.95       -28.28      
C           95.46       27.52       -29.34      
C           95.52       26.19       -29.72      
C           94.59       25.31       -29.23      
C           91.93       20.83       -26.02      
C           90.47       21.23       -27.98      
C           93.16       27.68       -25.31      
C           91.76       28.52       -27.33      
H           90.64       26.05       -24.96      
H           93.09       22.91       -28.08      
H           94.69       28.97       -27.93      
H           94.63       24.32       -29.7       
H           88.83       19.97       -25.79      
H           88.76       24.38       -23.61      
H           92.5        20.32       -26.8       
H           91.49       20.0        -25.48      
H           92.63329    21.30853    -25.33846   
H           91.44       21.28       -28.56      
H           90.22       20.09       -27.83      
H           89.66931    21.82688    -28.41674   
H           92.28       29.39       -27.04      
H           91.81       28.35       -28.39      
H           90.74343    28.66119    -26.96291   
H           93.38       28.72       -25.34      
H           92.36       27.65       -24.57      
H           94.0306     27.10668    -24.99149   
H           87.03       19.19       -23.84      
H           96.39       29.41       -29.92      
S           86.71       22.58       -22.39      
C           87.05       20.28       -23.63      
C           86.39       20.86       -22.58      
C           100.91      28.61       -33.07      
C           99.95       29.56       -32.67      
C           100.57      27.34       -32.64      
N           99.85       30.88       -32.83      
N           97.98       30.25       -31.9       
O           98.6        31.25       -32.39      
H           99.3        26.05       -31.53      
H           101.14      26.5        -32.86      
C           99.44       27.03       -31.91      
C           98.75       29.2        -31.94      
C           98.39       27.9        -31.59      
C           116.52      33.04       -36.45      
C           115.63      34.05       -36.07      
S           115.8       31.47       -36.64      
C           109.74      32.46       -34.84      
C           110.67      31.44       -35.2       
C           110.11      30.17       -35.35      
C           108.81      29.86       -34.93      
C           107.98      30.9        -34.5       
C           108.43      32.22       -34.46      
C           108.0       28.56       -35.04      
C           106.67      28.99       -34.49      
C           106.65      30.36       -34.21      
C           110.51      33.81       -34.76      
C           111.97      33.39       -35.08      
C           111.96      32.02       -35.43      
C           105.57      28.19       -34.57      
C           104.4       28.78       -34.27      
C           104.4       30.12       -33.83      
C           105.52      30.95       -33.75      
C           113.11      34.13       -35.37      
C           114.33      33.5        -35.8       
C           114.28      32.1        -36.0       
C           113.09      31.35       -35.82      
C           108.7       27.39       -34.27      
C           107.94      28.14       -36.56      
C           110.49      34.44       -33.33      
C           110.06      34.91       -35.84      
H           107.84      33.03       -34.11      
H           110.8       29.37       -35.58      
H           113.1       35.21       -35.32      
H           113.03      30.29       -36.04      
H           105.79      27.17       -34.89      
H           105.46      32.03       -33.46      
H           108.82      26.51       -35.0       
H           109.73      27.74       -34.14      
H           108.32126   27.21849    -33.26241   
H           108.92      27.71       -36.78      
H           107.18      27.41       -36.78      
H           107.83673   28.92189    -37.31238   
H           109.76      35.83       -35.42      
H           110.81      35.23       -36.46      
H           109.2139    34.58294    -36.44436   
H           110.31      35.46       -33.48      
H           109.65      34.13       -32.66      
H           111.39586   34.2504     -32.75418   
H           102.82      27.15       -34.58      
H           115.89      35.07       -35.8       
S           102.85      30.48       -33.22      
C           103.08      28.15       -34.19      
C           102.19      28.98       -33.6       
C           120.83      33.12       -37.37      
C           120.21      34.14       -36.54      
C           119.93      32.2        -37.85      
N           120.78      35.26       -36.01      
N           118.45      35.3        -35.66      
O           119.67      35.94       -35.51      
H           117.97      31.55       -38.13      
H           120.17      31.42       -38.57      
C           118.57      32.23       -37.52      
C           118.81      34.18       -36.31      
C           117.94      33.08       -36.66      
C           134.59      31.83       -46.61      
C           133.54      31.02       -46.75      
S           134.15      33.22       -45.61      
C           128.35      31.81       -43.52      
C           129.33      32.83       -43.34      
C           129.16      33.93       -42.39      
C           127.97      33.83       -41.57      
C           127.07      32.71       -41.7       
C           127.21      31.74       -42.73      
C           127.71      34.67       -40.33      
C           126.35      33.94       -39.9       
C           126.04      32.84       -40.75      
C           128.9       30.69       -44.42      
C           130.1       31.4        -45.05      
C           130.45      32.56       -44.28      
C           125.52      34.27       -38.85      
C           124.33      33.62       -38.69      
C           124.08      32.44       -39.46      
C           124.84      32.07       -40.52      
C           131.13      30.83       -45.79      
C           132.34      31.44       -46.04      
C           132.62      32.56       -45.22      
C           131.71      33.22       -44.42      
C           127.53      36.12       -40.78      
C           128.8       34.47       -39.27      
C           127.88      30.33       -45.53      
C           129.41      29.49       -43.65      
H           126.56      30.89       -42.88      
H           129.89      34.73       -42.17      
H           130.9       29.93       -46.33      
H           131.99      34.09       -43.93      
H           125.79      34.99       -38.14      
H           124.48      31.21       -41.15      
H           128.34      36.29       -41.47      
H           126.62      36.12       -41.34      
H           127.44304   36.87366    -39.99735   
H           129.68      34.92       -39.65      
H           128.45      34.97       -38.34      
H           129.06443   33.44803    -38.99843   
H           129.69      28.66       -44.38      
H           130.35      29.65       -43.16      
H           128.68159   29.01175    -42.99517   
H           126.86      30.15       -45.21      
H           128.23      29.33       -45.94      
H           127.84402   30.98479    -46.40066   
H           123.22      34.73       -37.13      
H           133.55      30.19       -47.49      
S           122.6       31.72       -39.04      
C           123.28      33.87       -37.78      
C           122.19      33.06       -37.92      
C           138.3       32.22       -48.98      
C           137.37      31.24       -49.35      
C           137.93      32.96       -47.93      
N           137.37      30.44       -50.36      
N           135.52      30.01       -49.09      
O           136.21      29.73       -50.21      
H           136.59      33.62       -46.45      
H           138.56      33.83       -47.73      
C           136.78      32.77       -47.13      
C           136.18      30.96       -48.51      
C           135.87      31.79       -47.32      
C           151.96      32.84       -58.45      
C           150.7       32.68       -58.87      
S           151.9       32.95       -56.71      
C           145.8       32.72       -55.34      
C           146.97      32.6        -54.66      
C           147.07      32.51       -53.27      
C           145.91      32.6        -52.54      
C           144.64      32.58       -53.31      
C           144.57      32.59       -54.69      
C           145.61      32.83       -51.07      
C           144.16      32.67       -51.02      
C           143.55      32.46       -52.27      
C           146.05      32.79       -56.86      
C           147.53      32.81       -56.93      
C           148.04      32.7        -55.64      
C           143.27      32.92       -49.92      
C           141.81      32.61       -50.04      
C           141.34      32.41       -51.34      
C           142.16      32.35       -52.45      
C           148.31      32.8        -58.01      
C           149.69      32.87       -57.87      
C           150.2       32.93       -56.63      
C           149.41      32.75       -55.48      
C           146.07      34.23       -50.52      
C           146.27      31.65       -50.29      
C           145.53      34.17       -57.32      
C           145.48      31.72       -57.77      
H           143.61      32.82       -55.16      
H           148.02      32.55       -52.78      
H           147.9       32.63       -58.99      
H           149.85      32.61       -54.52      
H           143.65      33.09       -48.98      
H           141.71      32.24       -53.42      
H           147.15      34.2        -50.52      
H           145.84      34.98       -51.31      
H           145.79862   34.61967    -49.53887   
H           147.36      31.81       -50.3       
H           145.97      31.75       -49.22      
H           146.12324   30.65762    -50.71631   
H           144.62      32.07       -58.35      
H           146.17      31.56       -58.59      
H           145.23891   30.79215    -57.25128   
H           144.44      34.21       -57.35      
H           145.7       34.22       -58.41      
H           145.96757   35.01735    -56.79214   
H           140.8       32.86       -48.1       
H           150.49      32.58       -59.97      
S           139.65      32.12       -51.46      
C           140.73      32.7        -49.16      
C           139.54      32.29       -49.7       
C           155.77      32.82       -60.64      
C           154.53      33.02       -61.26      
C           155.63      32.55       -59.31      
N           154.28      33.19       -62.58      
N           152.31      33.08       -61.51      
O           152.98      33.1        -62.69      
H           154.46      32.3        -57.54      
H           156.55      32.34       -58.74      
C           154.4       32.53       -58.62      
C           153.29      32.91       -60.59      
C           153.19      32.78       -59.18      
C           171.09      34.36       -66.85      
C           170.89      34.62       -65.56      
S           169.68      34.84       -67.76      
C           165.25      34.33       -63.31      
C           165.37      34.5        -64.65      
C           164.19      34.52       -65.47      
C           162.98      34.35       -64.87      
C           162.87      34.18       -63.51      
C           164.01      34.12       -62.73      
C           161.6       34.13       -65.51      
C           160.77      33.85       -64.28      
C           161.52      34.01       -63.12      
C           166.68      34.42       -62.65      
C           167.55      34.49       -63.88      
C           166.78      34.54       -65.05      
C           159.38      33.49       -64.28      
C           158.8       33.17       -62.98      
C           159.56      33.39       -61.75      
C           160.92      33.78       -61.84      
C           168.93      34.51       -63.96      
C           169.5       34.64       -65.23      
C           168.68      34.55       -66.36      
C           167.28      34.69       -66.32      
C           161.66      32.97       -66.5       
C           161.02      35.43       -66.07      
C           166.96      33.08       -61.94      
C           166.88      35.63       -61.68      
H           163.86      33.97       -61.65      
H           164.27      34.83       -66.53      
H           169.47      34.31       -63.06      
H           166.67      34.88       -67.23      
H           158.87      33.3        -65.23      
H           161.46      33.87       -60.9       
H           162.28      33.29       -67.36      
H           160.66      32.77       -66.77      
H           162.07093   32.05441    -66.07465   
H           161.14      36.19       -65.37      
H           159.96      35.34       -66.23      
H           161.59372   35.78253    -66.92713   
H           167.57      35.35       -60.9       
H           167.21      36.6        -62.09      
H           166.00435   35.86351    -61.07434   
H           166.55      32.96       -60.92      
H           167.97      33.06       -61.57      
H           166.75323   32.17447    -62.51041   
H           156.66      32.91       -63.46      
H           171.67      34.42       -64.84      
S           158.51      33.07       -60.38      
C           157.43      32.85       -62.67      
C           157.07      32.71       -61.33      
C           174.75      33.56       -69.2       
C           174.38      32.79       -68.04      
C           173.98      34.68       -69.38      
N           174.86      31.58       -67.67      
N           173.07      32.09       -66.46      
O           174.12      31.22       -66.63      
H           172.36      35.88       -68.86      
H           174.26      35.45       -70.09      
C           172.8       34.93       -68.61      
C           173.23      32.98       -67.33      
C           172.32      34.07       -67.6       
C           188.11      31.36       -79.11      
C           187.58      32.52       -78.76      
S           187.22      29.99       -78.45      
C           182.3       32.98       -75.73      
C           182.75      31.68       -75.82      
C           182.02      30.61       -75.23      
C           180.97      30.99       -74.38      
C           180.6       32.33       -74.17      
C           181.24      33.32       -74.92      
C           180.11      30.06       -73.56      
C           179.16      31.06       -72.86      
C           179.47      32.39       -73.29      
C           183.24      34.01       -76.41      
C           184.34      33.09       -76.8       
C           183.98      31.73       -76.65      
C           178.17      30.83       -71.92      
C           177.47      31.9        -71.34      
C           177.81      33.16       -71.76      
C           178.8       33.45       -72.73      
C           185.36      33.43       -77.71      
C           186.33      32.41       -78.13      
C           185.96      31.07       -77.85      
C           184.81      30.74       -77.15      
C           180.95      29.32       -72.54      
C           179.34      29.04       -74.44      
C           183.62      35.17       -75.44      
C           182.61      34.51       -77.79      
H           180.88      34.29       -74.93      
H           182.33      29.65       -75.34      
H           185.59      34.5        -77.8       
H           184.61      29.67       -76.98      
H           177.88      29.86       -71.46      
H           179.04      34.44       -73.0       
H           180.33      28.64       -71.97      
H           181.58      28.6        -73.1       
H           181.49401   29.96999    -71.85468   
H           180.07      28.27       -74.74      
H           178.72      28.45       -73.79      
H           178.74805   29.43463    -75.26581   
H           183.32      35.14       -78.34      
H           182.39      33.63       -78.37      
H           181.67231   35.06409    -77.74738   
H           182.81      35.82       -75.4       
H           184.42      35.87       -75.79      
H           183.9319    34.88582    -74.43498   
H           175.98      30.96       -69.85      
H           188.14      33.46       -78.93      
S           176.72      34.35       -71.06      
C           176.45      31.88       -70.25      
C           175.9       33.15       -70.08      
C           192.02      30.76       -80.89      
C           191.73      31.89       -80.13      
C           190.92      29.92       -81.1       
N           192.57      32.78       -79.66      
N           190.59      33.19       -78.8       
O           191.93      33.62       -78.84      
H           188.87      29.39       -80.71      
H           191.13      28.98       -81.58      
C           189.64      30.08       -80.49      
C           190.44      32.09       -79.55      
C           189.38      31.14       -79.71      
H           77.61       -0.29       48.45       
H           193.02      30.58       -81.35      
