612

C           120.67      43.25       40.0        
C           121.19      42.39       40.94       
S           119.01      43.6        40.36       
C           118.3       40.84       46.12       
C           117.75      41.91       45.39       
C           116.71      42.69       45.94       
C           116.2       42.32       47.2        
C           116.67      41.13       47.88       
C           117.74      40.36       47.31       
C           115.06      43.0        48.05       
C           114.93      41.92       49.19       
C           115.91      40.89       49.08       
C           119.56      40.3        45.42       
C           119.61      41.26       44.21       
C           118.41      41.94       44.05       
C           114.01      41.87       50.26       
C           114.13      40.84       51.19       
C           115.15      39.98       51.14       
C           116.02      39.94       50.09       
C           120.59      41.28       43.2        
C           120.33      42.08       42.05       
C           119.05      42.79       41.94       
C           118.09      42.72       42.93       
C           113.66      43.01       47.34       
C           115.33      44.35       48.86       
C           119.26      38.81       45.07       
C           120.78      40.44       46.31       
H           118.13      39.46       47.72       
H           116.25      43.42       45.37       
H           121.51      40.77       43.29       
H           117.09      43.18       42.84       
H           113.15      42.53       50.16       
H           116.86      39.27       50.11       
H           113.57      43.77       46.61       
H           112.83      43.07       48.13       
H           113.52658   42.06901    46.8063     
H           115.75      44.19       49.87       
H           114.35      44.66       49.1        
H           115.81962   45.16136    48.32142    
H           120.91      39.5        46.98       
H           121.64      40.47       45.65       
H           120.75179   41.33564    46.9306     
H           118.82      38.32       45.88       
H           120.22      38.23       44.98       
H           118.60657   38.73101    44.20115    
H           112.5       41.29       52.73       
H           122.18      42.02       40.86       
S           115.29      38.95       52.51       
C           113.32      40.62       52.4        
C           113.78      39.6        53.15       
C           122.28      45.29       36.34       
C           123.07      44.29       37.03       
C           121.08      45.5        37.0        
N           124.32      43.87       36.79       
N           123.58      42.93       38.7        
O           124.67      43.04       37.82       
H           119.5       45.08       38.43       
H           120.33      46.19       36.64       
C           120.57      44.83       38.16       
C           122.59      43.66       38.24       
C           121.25      43.82       38.74       
C           123.76      54.73       22.9        
C           122.66      54.71       23.74       
S           125.01      53.64       23.47       
C           122.4       51.51       28.92       
C           123.59      51.4        28.11       
C           124.61      50.55       28.52       
C           124.52      49.77       29.63       
C           123.31      49.93       30.42       
C           122.29      50.76       30.08       
C           125.27      48.49       29.98       
C           124.58      48.18       31.35       
C           123.4       48.96       31.44       
C           121.44      52.47       28.25       
C           122.23      52.88       26.99       
C           123.55      52.28       26.95       
C           124.68      47.05       32.15       
C           123.68      46.83       33.15       
C           122.59      47.73       33.22       
C           122.44      48.77       32.37       
C           121.81      53.64       25.89       
C           122.78      53.83       24.88       
C           124.09      53.26       24.94       
C           124.45      52.45       25.97       
C           126.7       48.82       30.33       
C           125.2       47.16       29.05       
C           121.15      53.8        29.13       
C           120.11      51.83       27.84       
H           121.36      50.72       30.6        
H           125.55      50.53       27.93       
H           120.88      54.23       25.92       
H           125.38      51.83       25.95       
H           125.55      46.49       32.08       
H           121.52      49.32       32.38       
H           127.22      49.24       29.53       
H           127.23      47.89       30.45       
H           126.84142   49.46011    31.20084    
H           124.33      46.62       29.39       
H           125.99      46.52       29.36       
H           125.17126   47.39713    27.9865     
H           119.51      52.47       27.13       
H           120.29      50.85       27.32       
H           119.39907   51.62264    28.6398     
H           120.17      54.24       28.96       
H           121.16      53.44       30.17       
H           121.91486   54.57228    29.04832    
H           124.44      45.05       34.27       
H           121.79      55.41       23.61       
S           121.64      47.41       34.72       
C           123.67      45.83       34.21       
C           122.61      46.05       35.09       
C           124.16      56.79       19.03       
C           123.33      57.24       20.05       
C           124.83      55.72       19.37       
N           122.54      58.32       19.94       
N           122.19      57.28       21.98       
O           121.98      58.41       21.2        
H           125.46      54.25       20.88       
H           125.39      55.26       18.57       
C           124.79      55.1        20.65       
C           123.11      56.64       21.32       
C           123.9       55.47       21.65       
C           125.26      66.02       5.34        
C           126.36      65.24       5.64        
S           123.9       65.78       6.41        
C           125.91      61.36       10.49       
C           124.74      62.07       10.17       
C           123.53      61.94       10.9        
C           123.51      60.96       11.91       
C           124.69      60.3        12.28       
C           125.87      60.4        11.57       
C           122.24      60.44       12.69       
C           122.97      59.54       13.68       
C           124.34      59.46       13.45       
C           127.04      61.74       9.48        
C           126.34      62.78       8.57        
C           125.04      63.07       9.13        
C           122.44      58.92       14.78       
C           123.34      58.36       15.74       
C           124.73      58.25       15.41       
C           125.24      58.73       14.22       
C           126.81      63.47       7.54        
C           126.11      64.49       6.91        
C           124.83      64.71       7.42        
C           124.29      64.07       8.53        
C           121.19      59.91       11.76       
C           121.56      61.53       13.52       
C           127.55      60.51       8.67        
C           128.21      62.48       10.16       
H           126.77      59.73       11.79       
H           122.63      62.43       10.71       
H           127.75      63.18       7.1         
H           123.26      64.19       8.85        
H           121.38      59.02       15.0        
H           126.25      58.78       14.09       
H           120.33      60.52       11.84       
H           121.58      60.2        10.75       
H           121.02151   58.83587    11.68278    
H           121.21      62.4        12.91       
H           120.74      61.18       14.16       
H           122.2666    62.05634    14.1617     
H           128.81      62.83       9.28        
H           127.91      63.38       10.68       
H           128.85752   61.83248    10.75121    
H           128.62      60.58       8.33        
H           127.63      59.55       9.29        
H           126.85291   60.26602    7.86835     
H           121.98      57.73       17.36       
H           127.3       65.2        5.04        
S           125.57      57.43       16.73       
C           122.98      57.84       17.0        
C           124.12      57.26       17.68       
C           123.72      67.49       1.54        
C           125.01      66.81       1.64        
C           123.29      67.85       2.81        
N           125.76      66.42       0.67        
N           126.62      65.56       2.55        
O           126.71      65.61       1.16        
H           123.29      67.79       4.91        
H           122.34      68.37       2.86        
C           123.85      67.47       4.04        
C           125.56      66.39       2.86        
C           124.91      66.61       4.09        
C           112.87      69.69       -10.77      
C           112.67      70.18       -9.49       
S           114.24      68.66       -10.75      
C           116.48      69.06       -4.85       
C           116.75      68.33       -6.01       
C           117.84      67.47       -6.06       
C           118.76      67.38       -5.03       
C           118.52      68.16       -3.86       
C           117.31      68.85       -3.73       
C           120.1       66.61       -4.95       
C           120.48      67.06       -3.52       
C           119.61      68.05       -2.96       
C           115.09      69.69       -4.96       
C           114.73      69.57       -6.45       
C           115.71      68.66       -6.96       
C           121.5       66.64       -2.77       
C           121.82      67.37       -1.63       
C           121.01      68.34       -1.06       
C           119.8       68.64       -1.69       
C           113.71      70.05       -7.22       
C           113.65      69.74       -8.56       
C           114.63      68.85       -9.02       
C           115.66      68.27       -8.24       
C           121.07      66.98       -6.09       
C           119.88      65.12       -4.76       
C           115.12      71.17       -4.59       
C           114.06      68.83       -4.17       
H           117.09      69.48       -2.85       
H           117.96      66.9        -6.92       
H           112.98      70.79       -6.8        
H           116.34      67.57       -8.78       
H           122.19      65.83       -3.03       
H           119.12      69.38       -1.24       
H           120.68      66.59       -7.02       
H           120.97      68.06       -6.3        
H           122.12919   66.76816    -5.9439     
H           119.51      64.79       -5.7        
H           120.78      64.51       -4.63       
H           119.1279    64.73321    -4.07237    
H           113.04      69.22       -4.27       
H           113.98      67.81       -4.58       
H           114.23231   68.78175    -3.09479    
H           115.2       71.25       -3.51       
H           114.11      71.52       -4.77       
H           115.85592   71.71301    -5.18302    
H           123.73      66.31       -0.96       
H           111.86      70.76       -9.15       
S           121.79      69.05       0.36        
C           122.96      67.07       -0.77       
C           122.97      67.81       0.32        
C           110.06      69.36       -14.24      
C           109.78      70.14       -13.11      
C           111.23      68.66       -14.09      
N           108.85      71.05       -12.97      
N           110.16      71.25       -11.18      
O           108.96      71.61       -11.76      
H           113.06      68.21       -13.0       
H           111.64      68.07       -14.86      
C           112.16      68.75       -12.98      
C           110.68      70.31       -11.99      
C           111.98      69.63       -11.91      
C           105.33      68.02       -28.91      
C           105.52      66.75       -28.46      
S           104.27      68.93       -27.92      
C           105.59      66.42       -22.44      
C           104.77      67.42       -22.91      
C           104.42      68.56       -22.13      
C           104.99      68.66       -20.9       
C           105.82      67.6        -20.38      
C           106.04      66.46       -21.13      
C           105.1       69.86       -19.95      
C           105.92      69.31       -18.71      
C           106.28      67.95       -19.03      
C           106.17      65.61       -23.65      
C           105.23      66.07       -24.73      
C           104.56      67.27       -24.39      
C           106.48      70.1        -17.72      
C           107.48      69.39       -17.0       
C           107.89      68.01       -17.26      
C           107.24      67.22       -18.24      
C           105.45      65.72       -26.03      
C           105.13      66.64       -27.03      
C           104.36      67.8        -26.6       
C           104.03      68.14       -25.27      
C           103.68      70.25       -19.53      
C           105.79      71.08       -20.58      
C           106.13      64.02       -23.46      
C           107.6       66.08       -23.99      
H           106.75      65.67       -20.74      
H           103.74      69.28       -22.53      
H           106.13      64.92       -26.31      
H           103.59      69.04       -25.03      
H           106.28      71.13       -17.56      
H           107.61      66.21       -18.42      
H           103.18      70.5        -20.43      
H           103.68      71.24       -18.97      
H           103.13118   69.5112     -18.94599   
H           105.28      71.21       -21.54      
H           105.62      71.93       -19.9       
H           106.85009   70.91151    -20.76955   
H           107.96      65.56       -24.88      
H           107.43      67.12       -24.24      
H           108.3148    66.00992    -23.17009   
H           106.85      63.37       -24.04      
H           106.52      63.83       -22.43      
H           105.11466   63.6236     -23.45305   
H           107.81      70.86       -15.44      
H           106.22      66.03       -28.89      
S           109.06      67.48       -16.11      
C           108.15      69.92       -15.86      
C           109.14      69.11       -15.41      
C           108.0       70.21       -31.54      
C           106.8       70.83       -31.07      
C           108.05      68.86       -31.4       
N           106.34      72.08       -31.07      
N           104.91      70.85       -29.9       
O           105.18      72.09       -30.3       
H           107.38      67.08       -30.51      
H           108.92      68.35       -31.65      
C           107.11      68.11       -30.59      
C           105.82      70.07       -30.36      
C           106.04      68.7        -29.99      
C           122.88      76.18       -36.42      
C           122.39      74.97       -36.77      
S           121.85      76.95       -35.24      
C           117.09      72.7        -34.52      
C           117.43      74.02       -34.08      
C           116.49      74.67       -33.29      
C           115.27      74.12       -32.95      
C           114.93      72.87       -33.47      
C           115.86      72.14       -34.26      
C           114.07      74.82       -32.34      
C           113.0       73.65       -32.39      
C           113.55      72.56       -33.11      
C           118.25      72.2        -35.46      
C           119.25      73.39       -35.43      
C           118.68      74.46       -34.63      
C           111.68      73.65       -31.97      
C           110.93      72.49       -32.22      
C           111.54      71.48       -32.99      
C           112.84      71.44       -33.44      
C           120.43      73.45       -36.16      
C           121.18      74.61       -36.02      
C           120.63      75.71       -35.25      
C           119.41      75.62       -34.55      
C           113.64      76.04       -33.2       
C           114.3       75.36       -30.97      
C           117.79      71.95       -36.89      
C           118.91      70.98       -34.69      
H           115.6       71.14       -34.62      
H           116.69      75.7        -32.93      
H           120.63      72.69       -36.85      
H           118.96      76.43       -33.99      
H           111.18      74.56       -31.52      
H           113.28      70.59       -33.97      
H           113.1       76.83       -32.65      
H           114.54      76.54       -33.52      
H           113.24547   75.78176    -34.18273   
H           115.01      76.21       -30.93      
H           113.37      75.72       -30.57      
H           114.79646   74.68426    -30.27358   
H           118.36      70.09       -34.84      
H           119.91      70.73       -34.96      
H           118.98399   71.10578    -33.60981   
H           118.67      71.92       -37.52      
H           117.32      71.03       -37.1       
H           117.05975   72.64514    -37.30427   
H           109.09      72.85       -31.03      
H           122.79      74.46       -37.65      
S           110.37      70.14       -33.07      
C           109.59      72.21       -31.77      
C           109.13      70.95       -32.05      
C           126.29      78.18       -38.5       
C           125.93      78.45       -37.11      
C           125.34      77.47       -39.17      
N           126.67      79.09       -36.21      
N           124.93      78.09       -35.15      
O           126.02      78.84       -34.99      
H           123.46      76.36       -39.16      
H           125.46      77.42       -40.24      
C           124.17      76.89       -38.48      
C           124.87      77.72       -36.45      
C           124.0       76.86       -37.07      
C           140.58      79.03       -46.6       
C           139.36      79.11       -47.27      
S           140.29      78.8        -44.81      
C           134.11      79.69       -44.15      
C           135.3       79.37       -43.41      
C           135.21      79.03       -42.08      
C           133.96      79.1        -41.48      
C           132.82      79.6        -42.13      
C           132.87      79.81       -43.5       
C           133.53      78.47       -40.12      
C           132.11      79.08       -39.98      
C           131.63      79.49       -41.25      
C           134.46      79.91       -45.62      
C           135.92      79.46       -45.61      
C           136.44      79.27       -44.28      
C           131.21      78.85       -38.96      
C           129.88      78.86       -39.25      
C           129.47      79.35       -40.5       
C           130.3       79.66       -41.58      
C           136.85      79.36       -46.71      
C           138.19      79.07       -46.4       
C           138.56      78.79       -45.02      
C           137.67      78.85       -43.94      
C           134.42      78.91       -38.9       
C           133.53      76.88       -40.25      
C           134.2       81.34       -46.06      
C           133.69      78.94       -46.56      
H           132.05      80.0        -44.14      
H           136.1       78.64       -41.57      
H           136.54      79.56       -47.75      
H           138.06      78.74       -42.91      
H           131.6       78.68       -37.96      
H           129.96      79.84       -42.56      
H           134.32      78.4        -37.89      
H           135.48      78.78       -39.14      
H           134.30648   79.96001    -38.6304    
H           134.52      76.57       -40.02      
H           132.88      76.43       -39.48      
H           133.19836   76.52073    -41.22419   
H           132.64      79.19       -46.77      
H           134.26      79.04       -47.51      
H           133.71195   77.90836    -46.2088    
H           133.15      81.6        -45.94      
H           134.34      81.4        -47.16      
H           134.85143   82.06932    -45.57851   
H           128.99      78.16       -37.32      
H           139.3       79.07       -48.37      
S           127.72      79.18       -40.62      
C           128.83      78.59       -38.34      
C           127.62      78.52       -39.0       
C           144.48      79.35       -48.64      
C           144.26      78.61       -47.43      
C           143.32      80.01       -49.03      
N           145.16      77.94       -46.72      
N           143.12      77.53       -45.8       
O           144.44      77.28       -45.77      
H           141.4       80.6        -48.59      
H           143.31      80.77       -49.8       
C           142.15      79.99       -48.24      
C           143.0       78.48       -46.77      
C           141.86      79.15       -47.23      
C           157.3       80.67       -58.86      
C           156.15      81.16       -59.31      
S           157.08      79.29       -57.73      
C           151.08      80.15       -56.05      
C           152.16      79.26       -55.76      
C           152.03      78.32       -54.72      
C           150.84      78.37       -53.94      
C           149.91      79.42       -54.1       
C           149.99      80.27       -55.22      
C           150.46      77.42       -52.8       
C           149.39      78.26       -52.14      
C           149.02      79.39       -52.94      
C           151.34      80.82       -57.4       
C           152.81      80.4        -57.62      
C           153.25      79.48       -56.68      
C           148.92      78.07       -50.88      
C           147.66      78.72       -50.58      
C           147.22      79.81       -51.36      
C           147.96      80.17       -52.49      
C           153.63      80.89       -58.56      
C           155.04      80.57       -58.53      
C           155.41      79.6        -57.57      
C           154.54      78.94       -56.74      
C           151.73      77.24       -52.01      
C           149.82      76.1        -53.3       
C           151.08      82.29       -57.43      
C           150.69      80.19       -58.61      
H           149.18      81.04       -55.28      
H           152.86      77.68       -54.46      
H           153.3       81.69       -59.2       
H           154.93      78.12       -56.05      
H           149.17      77.2        -50.32      
H           147.63      81.01       -53.08      
H           152.43      76.86       -52.77      
H           152.08      78.21       -51.66      
H           151.77623   76.50024    -51.2108    
H           150.13      75.22       -52.71      
H           148.74      76.04       -53.12      
H           149.95532   75.85784    -54.35411   
H           150.91      80.7        -59.54      
H           151.19      79.21       -58.71      
H           149.60976   80.09822    -58.49703   
H           150.03      82.37       -57.08      
H           151.1       82.63       -58.44      
H           151.67555   82.95645    -56.80609   
H           146.89      77.74       -48.65      
H           155.99      81.89       -60.11      
S           145.72      80.54       -50.78      
C           146.78      78.51       -49.45      
C           145.62      79.31       -49.54      
C           161.62      81.84       -59.27      
C           160.65      81.92       -60.39      
C           160.98      81.22       -58.16      
N           160.87      82.45       -61.57      
N           158.66      82.06       -61.38      
O           159.67      82.6        -62.14      
H           159.29      80.3        -57.23      
H           161.57      81.03       -57.27      
C           159.61      80.75       -58.18      
C           159.26      81.49       -60.34      
C           158.66      80.94       -59.2       
C           177.21      87.18       -60.31      
C           176.41      86.93       -61.37      
S           176.49      86.64       -58.81      
C           170.94      84.26       -60.96      
C           171.63      84.52       -59.69      
C           171.03      84.29       -58.48      
C           169.74      83.8        -58.52      
C           169.05      83.57       -59.72      
C           169.65      83.75       -60.95      
C           168.76      83.52       -57.35      
C           167.51      83.08       -58.04      
C           167.68      83.06       -59.49      
C           171.95      84.48       -62.14      
C           173.11      85.16       -61.38      
C           173.01      84.97       -59.96      
C           166.26      82.85       -57.52      
C           165.22      82.59       -58.46      
C           165.47      82.63       -59.88      
C           166.71      82.8        -60.43      
C           174.15      85.89       -61.92      
C           175.21      86.28       -61.05      
C           175.15      85.97       -59.68      
C           174.08      85.22       -59.12      
C           168.42      84.81       -56.59      
C           169.27      82.36       -56.46      
C           171.47      85.55       -63.14      
C           172.48      83.21       -62.82      
H           169.2       83.4        -61.89      
H           171.49      84.5        -57.49      
H           174.2       86.14       -62.91      
H           174.13      84.98       -58.01      
H           166.02      83.0        -56.47      
H           166.82      82.75       -61.54      
H           169.31      85.23       -56.07      
H           167.67      84.62       -55.75      
H           168.09811   85.59372    -57.27576   
H           169.61      81.6        -57.17      
H           168.5       81.91       -55.91      
H           170.12899   82.56557    -55.82127   
H           171.88      83.08       -63.68      
H           173.49      83.38       -63.19      
H           172.50907   82.36701    -62.12962   
H           170.58      85.21       -63.76      
H           172.31      85.67       -63.78      
H           171.18593   86.48233    -62.65198   
H           163.45      82.29       -57.16      
H           176.58      87.2        -62.35      
S           164.05      82.21       -60.72      
C           163.85      82.36       -58.17      
C           163.05      82.18       -59.26      
C           181.13      89.18       -59.75      
C           180.69      88.8        -61.08      
C           180.31      88.82       -58.69      
N           181.32      88.85       -62.24      
N           179.25      87.94       -62.63      
O           180.4       88.43       -63.16      
H           178.4       88.01       -58.13      
H           180.58      89.02       -57.65      
C           179.0       88.25       -58.93      
C           179.42      88.11       -61.3       
C           178.58      87.79       -60.17      
C           196.58      88.36       -55.28      
C           195.61      88.47       -54.36      
S           195.92      88.86       -56.83      
C           189.87      90.08       -55.62      
C           190.84      90.28       -56.64      
C           190.48      90.68       -57.99      
C           189.16      90.97       -58.2       
C           188.2       90.63       -57.2       
C           188.54      90.23       -55.9       
C           188.51      91.25       -59.5       
C           187.03      91.06       -59.19      
C           186.92      90.64       -57.84      
C           190.57      89.69       -54.31      
C           192.03      89.53       -54.71      
C           192.08      89.75       -56.1       
C           185.93      91.14       -60.07      
C           184.7       90.57       -59.5       
C           184.66      90.1        -58.21      
C           185.71      90.21       -57.32      
C           193.18      89.11       -54.01      
C           194.33      89.0        -54.82      
C           194.37      89.31       -56.13      
C           193.26      89.72       -56.86      
C           189.03      90.21       -60.52      
C           188.9       92.61       -60.02      
C           190.01      88.32       -54.06      
C           190.51      90.59       -53.06      
H           187.77      89.99       -55.09      
H           191.24      90.9        -58.74      
H           193.11      88.72       -52.97      
H           193.3       89.86       -57.9       
H           185.92      91.39       -61.14      
H           185.61      89.78       -56.31      
H           189.81      90.62       -61.23      
H           189.61      89.44       -59.99      
H           188.27265   89.56916    -60.9715    
H           189.99      92.63       -59.91      
H           188.68      92.65       -61.1       
H           188.49174   93.39251    -59.38039   
H           190.51      90.0        -52.12      
H           191.39      91.15       -53.13      
H           189.59984   91.18972    -53.06706   
H           189.06      88.37       -53.62      
H           190.72      87.94       -53.28      
H           189.93832   87.6104     -54.88428   
H           183.27      90.41       -61.21      
H           195.72      88.19       -53.33      
S           183.09      89.42       -57.76      
C           183.46      90.23       -60.1       
C           182.47      89.68       -59.35      
C           200.83      87.04       -54.93      
C           200.04      87.34       -53.75      
C           200.08      87.17       -56.09      
N           200.33      87.14       -52.49      
N           198.28      88.1        -52.64      
O           199.28      87.74       -51.82      
H           198.31      87.69       -57.2       
H           200.57      87.0        -57.08      
C           198.74      87.62       -56.19      
C           198.66      87.82       -53.88      
C           198.01      88.04       -55.13      
H           113.2       39.05       53.96       
H           201.95      87.16       -54.91      
