612

C           114.31      48.64       7.48        
C           113.29      47.89       7.94        
S           115.36      49.2        8.78        
C           112.22      47.02       13.89       
C           113.21      47.87       13.57       
C           113.88      48.62       14.56       
C           113.46      48.56       15.86       
C           112.38      47.7        16.16       
C           111.79      46.91       15.2        
C           113.84      49.27       17.13       
C           112.88      48.71       18.12       
C           111.96      47.81       17.54       
C           111.62      46.39       12.58       
C           112.33      47.16       11.51       
C           113.39      47.96       12.14       
C           112.8       49.09       19.45       
C           111.82      48.5        20.25       
C           110.9       47.48       19.65       
C           110.98      47.11       18.3        
C           112.21      47.13       10.11       
C           113.2       47.78       9.37        
C           114.3       48.48       10.02       
C           114.39      48.62       11.44       
C           113.74      50.79       17.02       
C           115.27      48.92       17.59       
C           110.08      46.5        12.43       
C           112.06      44.9        12.46       
H           110.93      46.24       15.43       
H           114.61      49.36       14.29       
H           111.46      46.53       9.67        
H           115.24      49.26       11.87       
H           113.39      49.86       19.94       
H           110.36      46.35       17.8        
H           114.56      51.37       16.57       
H           113.8       51.08       18.06       
H           112.82691   51.08219    16.50136    
H           115.28      47.83       17.72       
H           115.32      49.28       18.64       
H           116.10937   49.14198    16.93099    
H           111.73      44.45       11.54       
H           113.14      45.07       12.5        
H           111.75658   44.25869    13.2875     
H           109.54      46.01       13.26       
H           109.79      46.16       11.41       
H           109.78671   47.54747    12.49983    
H           111.87      49.49       22.29       
H           112.55      47.5        7.24        
S           109.8       46.88       20.85       
C           111.4       48.75       21.63       
C           110.35      47.97       22.13       
C           115.8       48.94       3.31        
C           116.18      49.9        4.33        
C           114.91      48.0        3.78        
N           117.04      50.91       4.22        
N           116.41      50.71       6.39        
O           117.2       51.45       5.5         
H           113.64      47.25       5.31        
H           114.51      47.26       3.14        
C           114.44      48.0        5.11        
C           115.7       49.83       5.7         
C           114.69      48.91       6.07        
C           116.33      48.22       -13.1       
C           115.96      47.13       -12.38      
S           117.03      49.5        -12.1       
C           116.61      47.0        -6.33       
C           117.11      48.18       -6.98       
C           117.7       49.25       -6.31       
C           117.64      49.22       -4.91       
C           116.99      48.16       -4.24       
C           116.51      47.05       -4.92       
C           117.86      50.42       -3.91       
C           117.53      49.77       -2.59       
C           116.97      48.47       -2.82       
C           115.95      46.05       -7.3        
C           116.23      46.8        -8.62       
C           116.9       48.03       -8.4        
C           117.43      50.34       -1.34       
C           116.95      49.48       -0.29       
C           116.38      48.21       -0.58       
C           116.29      47.72       -1.88       
C           115.8       46.44       -9.83       
C           116.15      47.25       -10.91      
C           116.69      48.54       -10.69      
C           117.12      48.94       -9.41       
C           116.98      51.67       -4.15       
C           119.39      50.73       -3.94       
C           114.4       45.89       -7.13       
C           116.76      44.66       -7.47       
H           115.9       46.37       -4.42       
H           118.01      50.11       -6.88       
H           115.2       45.54       -10.05      
H           117.53      49.95       -9.28       
H           117.78      51.29       -1.07       
H           115.82      46.71       -2.09       
H           117.24      52.06       -5.08       
H           117.32      52.44       -3.42       
H           115.92181   51.40898    -4.16411    
H           119.93      49.91       -3.5        
H           119.52      51.51       -3.19       
H           119.80295   51.03615    -4.90117    
H           116.28      44.0        -8.15       
H           117.76      44.99       -7.88       
H           116.88053   44.00774    -6.60505    
H           113.93      45.63       -8.11       
H           114.28      45.07       -6.37       
H           113.8446    46.76383    -6.78935    
H           117.22      50.72       1.52        
H           115.63      46.22       -12.82      
S           115.85      47.39       0.88        
C           116.77      49.81       1.1         
C           116.16      48.9        1.88        
C           116.0       49.08       -17.57      
C           115.47      47.95       -16.97      
C           116.59      49.88       -16.58      
N           114.82      46.98       -17.53      
N           114.98      46.5        -15.34      
O           114.39      46.13       -16.53      
H           117.28      50.28       -14.63      
H           117.09      50.73       -17.02      
C           116.74      49.56       -15.19      
C           115.58      47.62       -15.59      
C           116.25      48.4        -14.6       
C           124.89      54.72       -29.72      
C           124.9       53.41       -29.32      
S           123.52      55.52       -28.98      
C           120.59      50.75       -25.99      
C           120.54      52.14       -26.22      
C           119.58      52.87       -25.61      
C           118.91      52.39       -24.54      
C           118.97      51.05       -24.26      
C           119.79      50.17       -25.03      
C           117.91      53.11       -23.64      
C           117.56      51.94       -22.66      
C           118.3       50.77       -22.99      
C           121.81      50.25       -26.8       
C           122.39      51.45       -27.44      
C           121.55      52.57       -27.12      
C           116.8       51.99       -21.51      
C           116.73      50.83       -20.7       
C           117.4       49.68       -21.06      
C           118.23      49.62       -22.17      
C           123.58      51.63       -28.08      
C           123.84      52.94       -28.55      
C           122.94      53.99       -28.25      
C           121.76      53.88       -27.56      
C           116.61      53.55       -24.4       
C           118.55      54.31       -22.82      
C           121.2       49.23       -27.82      
C           122.82      49.64       -25.84      
H           119.74      49.12       -24.88      
H           119.53      53.92       -25.87      
H           124.26      50.82       -28.14      
H           121.17      54.79       -27.26      
H           116.33      52.95       -21.16      
H           118.72      48.71       -22.53      
H           116.83      54.39       -25.06      
H           116.21      52.79       -25.07      
H           115.78499   53.88       -23.76869   
H           118.62      55.17       -23.51      
H           117.88      54.63       -21.98      
H           119.55655   54.11726    -22.44879   
H           122.53      48.59       -25.67      
H           123.88      49.71       -26.29      
H           122.88473   50.08591    -24.84749   
H           121.87      48.48       -28.19      
H           120.53      48.65       -27.19      
H           120.57601   49.70888    -28.57459   
H           115.41      51.39       -19.05      
H           125.71      52.75       -29.62      
S           117.03      48.43       -20.0       
C           115.99      50.62       -19.49      
C           116.04      49.39       -18.98      
C           127.96      57.35       -31.57      
C           128.24      56.0        -31.28      
C           126.68      57.74       -31.25      
N           129.36      55.31       -31.47      
N           127.79      53.9        -30.54      
O           129.08      54.09       -30.97      
H           124.81      57.26       -30.43      
H           126.27      58.72       -31.48      
C           125.73      56.85       -30.62      
C           127.19      55.13       -30.69      
C           125.9       55.54       -30.37      
C           133.67      64.16       -45.19      
C           134.12      62.95       -44.71      
S           133.18      65.11       -43.76      
C           132.93      60.8        -39.12      
C           132.73      62.12       -39.34      
C           132.17      62.86       -38.32      
C           131.72      62.22       -37.16      
C           131.83      60.84       -37.05      
C           132.49      60.11       -38.02      
C           130.79      62.76       -36.1       
C           130.42      61.46       -35.36      
C           131.13      60.38       -35.91      
C           133.68      60.23       -40.37      
C           133.54      61.36       -41.36      
C           133.15      62.5        -40.7       
C           129.59      61.27       -34.29      
C           129.5       59.98       -33.71      
C           130.21      58.92       -34.33      
C           131.06      59.1        -35.37      
C           133.91      61.42       -42.73      
C           133.86      62.68       -43.34      
C           133.41      63.78       -42.63      
C           133.07      63.74       -41.28      
C           129.64      63.35       -36.94      
C           131.37      63.82       -35.12      
C           133.01      58.92       -40.96      
C           135.2       59.99       -39.93      
H           132.5       58.98       -37.99      
H           132.06      63.93       -38.46      
H           134.07      60.52       -43.33      
H           132.67      64.6        -40.7       
H           129.05      62.07       -33.88      
H           131.67      58.25       -35.74      
H           129.9       64.3        -37.37      
H           129.3       62.71       -37.67      
H           128.6742    63.41535    -36.43895   
H           132.09      64.53       -35.53      
H           130.52      64.47       -34.7       
H           131.92875   63.37587    -34.2962    
H           135.79      59.95       -40.8       
H           135.44      60.94       -39.44      
H           135.2765    59.14847    -39.24147   
H           133.15      58.1        -40.33      
H           133.52      58.56       -41.88      
H           131.96146   59.10331    -41.19464   
H           128.1       60.17       -32.02      
H           134.4       62.21       -45.43      
S           129.96      57.37       -33.49      
C           128.78      59.55       -32.55      
C           128.87      58.18       -32.33      
C           132.54      65.76       -49.17      
C           133.15      64.53       -49.0       
C           132.34      66.41       -47.94      
N           133.27      63.57       -49.88      
N           133.99      62.76       -47.94      
O           133.96      62.56       -49.27      
H           132.79      66.52       -45.88      
H           131.65      67.27       -47.81      
C           132.84      65.85       -46.72      
C           133.6       64.0        -47.72      
C           133.53      64.72       -46.55      
C           128.12      73.5        -63.34      
C           128.42      74.21       -62.22      
S           128.38      71.83       -63.05      
C           129.64      71.84       -56.76      
C           129.53      70.93       -57.84      
C           129.83      69.59       -57.76      
C           130.11      69.06       -56.48      
C           130.1       69.86       -55.32      
C           129.95      71.29       -55.45      
C           130.52      67.62       -56.21      
C           130.78      67.72       -54.75      
C           130.55      69.02       -54.17      
C           129.43      73.32       -57.22      
C           129.28      73.1        -58.7       
C           129.24      71.69       -59.08      
C           131.25      66.64       -54.01      
C           131.53      66.87       -52.63      
C           131.24      68.14       -52.06      
C           130.75      69.24       -52.83      
C           129.06      73.96       -59.74      
C           128.84      73.49       -61.05      
C           128.8       72.13       -61.36      
C           129.01      71.23       -60.37      
C           131.82      67.24       -56.96      
C           129.44      66.59       -56.55      
C           130.71      74.14       -56.92      
C           128.09      73.98       -56.87      
H           130.04      71.86       -54.55      
H           129.92      68.99       -58.67      
H           129.04      75.07       -59.56      
H           128.89      70.2        -60.61      
H           131.26      65.67       -54.47      
H           130.69      70.24       -52.4       
H           131.63      67.4        -58.08      
H           132.06      66.18       -56.77      
H           132.69568   67.80704    -56.64418   
H           129.27      66.61       -57.63      
H           129.73      65.6        -56.36      
H           128.48307   66.73997    -56.05011   
H           128.06      75.05       -56.92      
H           127.27      73.68       -57.59      
H           127.91649   73.85507    -55.80117   
H           130.73      74.27       -55.88      
H           131.62      73.6        -57.25      
H           130.73875   75.19666    -57.18596   
H           132.29      64.92       -51.95      
H           128.49      75.25       -62.1       
S           131.73      68.14       -50.34      
C           131.98      65.93       -51.61      
C           132.07      66.43       -50.35      
C           126.68      74.83       -67.25      
C           126.68      75.77       -66.15      
C           127.14      73.6        -66.97      
N           126.32      77.01       -66.09      
N           127.09      76.4        -64.02      
O           126.53      77.37       -64.8       
H           128.03      72.18       -65.61      
H           127.21      73.01       -67.81      
C           127.59      73.15       -65.67      
C           127.16      75.37       -64.88      
C           127.6       74.01       -64.63      
C           128.79      79.16       -83.1       
C           129.27      80.0        -82.09      
S           128.14      77.66       -82.6       
C           128.49      78.22       -76.24      
C           128.02      77.29       -77.24      
C           127.24      76.19       -76.88      
C           127.1       75.91       -75.51      
C           127.71      76.79       -74.53      
C           128.38      77.98       -74.88      
C           126.64      74.65       -74.82      
C           126.73      75.03       -73.33      
C           127.35      76.3        -73.16      
C           129.23      79.36       -76.94      
C           129.25      78.96       -78.45      
C           128.55      77.7        -78.56      
C           126.26      74.36       -72.25      
C           126.41      74.9        -70.98      
C           127.2       76.1        -70.82      
C           127.7       76.84       -71.91      
C           129.66      79.7        -79.56      
C           129.24      79.21       -80.85      
C           128.63      77.96       -80.94      
C           128.3       77.22       -79.83      
C           127.47      73.32       -75.01      
C           125.16      74.35       -75.11      
C           130.59      79.47       -76.29      
C           128.44      80.65       -76.69      
H           128.81      78.66       -74.14      
H           126.83      75.51       -77.66      
H           130.19      80.61       -79.52      
H           127.55      76.37       -79.84      
H           125.78      73.44       -72.4       
H           128.29      77.73       -71.82      
H           126.88      72.45       -75.19      
H           128.13      73.36       -75.87      
H           128.18359   73.00913    -74.24695   
H           125.14      73.84       -76.1       
H           124.78      73.7        -74.33      
H           124.58442   75.25654    -75.29706   
H           128.12      80.69       -75.58      
H           129.08      81.49       -76.93      
H           127.59521   80.77567    -77.36723   
H           130.43      80.02       -75.33      
H           130.97      78.46       -76.07      
H           131.34344   80.00225    -76.87063   
H           125.65      73.46       -69.48      
H           129.68      81.01       -82.14      
S           127.48      76.47       -69.12      
C           125.99      74.44       -69.7       
C           126.39      75.22       -68.65      
C           128.26      80.38       -87.27      
C           128.82      79.07       -86.9       
C           127.9       81.16       -86.21      
N           129.22      78.02       -87.7       
N           129.41      77.44       -85.56      
O           129.71      77.16       -86.87      
H           127.77      81.38       -84.1       
H           127.55      82.19       -86.36      
C           128.15      80.78       -84.88      
C           129.01      78.69       -85.6       
C           128.66      79.58       -84.52      
C           129.66      89.81       -100.18     
C           128.81      90.18       -99.23      
S           129.72      88.07       -100.41     
C           127.21      86.32       -94.89      
C           127.98      85.77       -95.94      
C           128.48      84.47       -95.88      
C           128.28      83.78       -94.66      
C           127.54      84.34       -93.6       
C           127.05      85.65       -93.68      
C           129.06      82.52       -94.29      
C           128.29      82.25       -92.98      
C           127.59      83.36       -92.53      
C           126.72      87.71       -95.25      
C           127.53      87.91       -96.53      
C           128.12      86.69       -97.01      
C           128.46      81.13       -92.22      
C           128.07      81.17       -90.88      
C           127.41      82.34       -90.39      
C           127.09      83.42       -91.22      
C           127.72      89.06       -97.19      
C           128.5       89.09       -98.32      
C           128.85      87.8        -98.89      
C           128.78      86.63       -98.23      
C           130.61      82.83       -94.15      
C           128.84      81.34       -95.25      
C           127.09      88.92       -94.26      
C           125.22      87.75       -95.68      
H           126.55      86.19       -92.87      
H           128.97      83.98       -96.74      
H           127.47      90.0        -96.73      
H           129.27      85.7        -98.53      
H           129.01      80.24       -92.48      
H           126.54      84.25       -90.86      
H           131.14      81.87       -94.22      
H           131.01      83.35       -95.01      
H           130.89889   83.49938    -93.3397    
H           129.33      81.61       -96.22      
H           129.24      80.39       -94.83      
H           127.79603   81.19699    -95.52887   
H           124.97      88.78       -96.13      
H           125.11      87.03       -96.55      
H           124.52262   87.51517    -94.87588   
H           126.58      88.84       -93.31      
H           126.65      89.87       -94.68      
H           128.17295   88.99995    -94.16551   
H           128.89      79.32       -90.04      
H           128.46      91.21       -99.15      
S           126.82      82.1        -88.78      
C           128.3       80.2        -89.84      
C           127.91      80.73       -88.67      
C           131.33      92.25       -103.52     
C           130.1       92.54       -102.87     
C           131.73      91.0        -103.16     
N           129.25      93.55       -103.14     
N           128.55      92.54       -101.31     
O           128.37      93.57       -102.12     
H           131.64      89.19       -101.99     
H           132.54      90.47       -103.58     
C           131.18      90.18       -102.06     
C           129.64      91.86       -101.69     
C           130.15      90.58       -101.3      
C           137.41      93.44       -118.2      
C           138.2       93.02       -117.18     
S           136.36      94.79       -117.6      
C           136.99      93.82       -111.34     
C           136.24      94.7        -112.18     
C           135.29      95.54       -111.65     
C           134.8       95.42       -110.37     
C           135.39      94.44       -109.57     
C           136.57      93.73       -110.0      
C           133.52      96.04       -109.78     
C           133.48      95.28       -108.41     
C           134.62      94.45       -108.32     
C           138.18      93.13       -112.11     
C           137.72      93.49       -113.55     
C           136.77      94.5        -113.56     
C           132.43      95.19       -107.45     
C           132.63      94.36       -106.3      
C           133.85      93.58       -106.27     
C           134.9       93.6        -107.24     
C           138.33      93.0        -114.69     
C           137.82      93.49       -115.92     
C           136.89      94.5        -115.97     
C           136.32      95.02       -114.74     
C           132.38      95.67       -110.76     
C           133.62      97.55       -109.41     
C           138.17      91.58       -111.98     
C           139.52      93.78       -111.78     
H           137.07      92.99       -109.41     
H           134.83      96.29       -112.32     
H           138.98      92.12       -114.75     
H           135.57      95.84       -114.8      
H           131.65      95.88       -107.64     
H           135.79      93.03       -107.17     
H           132.53      96.33       -111.62     
H           132.59      94.68       -111.18     
H           131.36135   95.71986    -110.37534  
H           133.67      98.16       -110.29     
H           132.76      97.71       -108.82     
H           134.50102   97.80871    -108.82265  
H           140.16      93.86       -112.66     
H           139.36      94.84       -111.74     
H           140.03085   93.38427    -110.9022   
H           138.48      91.27       -110.89     
H           139.02      91.05       -112.48     
H           137.16091   91.19354    -112.12313  
H           130.66      94.48       -105.16     
H           138.83      92.14       -117.26     
S           133.7       92.5        -104.9      
C           131.68      94.02       -105.29     
C           132.02      92.98       -104.55     
C           136.96      92.02       -122.36     
C           138.09      91.67       -121.55     
C           136.07      92.81       -121.67     
N           139.18      90.99       -121.74     
N           139.37      91.63       -119.63     
O           139.9       90.9        -120.63     
H           135.39      93.71       -119.78     
H           135.11      93.07       -122.1      
C           136.2       93.19       -120.27     
C           138.25      92.14       -120.17     
C           137.29      92.98       -119.53     
C           134.63      84.63       -136.85     
C           133.72      85.52       -136.37     
S           136.13      84.93       -136.07     
C           134.18      88.93       -131.43     
C           135.37      88.27       -131.84     
C           136.53      88.21       -131.09     
C           136.55      88.77       -129.78     
C           135.37      89.51       -129.32     
C           134.2       89.51       -130.07     
C           137.76      88.78       -128.93     
C           137.16      89.74       -127.92     
C           135.79      90.05       -128.07     
C           133.06      88.68       -132.44     
C           133.82      88.02       -133.62     
C           135.15      87.66       -133.16     
C           137.87      90.01       -126.78     
C           137.17      90.63       -125.76     
C           135.83      91.05       -125.95     
C           135.08      90.7        -127.06     
C           133.28      87.43       -134.77     
C           134.06      86.44       -135.36     
C           135.38      86.16       -134.94     
C           135.95      86.78       -133.86     
C           138.95      89.45       -129.63     
C           138.12      87.39       -128.26     
C           132.41      90.01       -132.85     
C           132.04      87.62       -131.98     
H           133.23      89.93       -129.67     
H           137.29      87.7        -131.51     
H           132.28      87.73       -135.11     
H           136.83      86.36       -133.35     
H           138.83      89.62       -126.66     
H           133.94      90.79       -127.21     
H           139.13      88.84       -130.53     
H           139.83      89.28       -129.08     
H           138.85651   90.51434    -129.84574  
H           137.2       87.01       -127.78     
H           138.9       87.46       -127.57     
H           138.4706    86.6327     -128.9612   
H           131.37      87.51       -132.84     
H           132.44      86.66       -131.69     
H           131.45041   88.01306    -131.15176  
H           131.73      90.45       -132.14     
H           131.69      89.83       -133.73     
H           133.12757   90.72757    -133.24786  
H           138.63      90.7        -124.06     
H           132.75      85.6        -136.74     
S           135.21      91.62       -124.4      
C           137.67      90.92       -124.46     
C           136.78      91.58       -123.7      
C           134.11      80.82       -138.84     
C           132.98      81.75       -138.89     
C           135.32      81.32       -138.52     
N           131.68      81.66       -139.24     
N           131.99      83.65       -138.25     
O           131.1       82.83       -139.0      
H           136.49      82.8        -137.5      
H           136.2       80.64       -138.37     
C           135.49      82.61       -137.87     
C           133.19      83.06       -138.27     
C           134.48      83.49       -137.69     
C           128.69      65.27       -138.89     
C           128.2       66.24       -138.17     
S           130.2       65.75       -139.74     
C           130.56      71.86       -137.88     
C           131.27      70.95       -138.73     
C           132.36      71.33       -139.48     
C           132.79      72.62       -139.36     
C           131.96      73.57       -138.68     
C           130.92      73.19       -137.89     
C           133.92      73.36       -140.09     
C           133.8       74.79       -139.56     
C           132.63      74.82       -138.73     
C           129.37      71.19       -137.22     
C           129.5       69.79       -137.84     
C           130.64      69.64       -138.62     
C           134.48      75.93       -139.91     
C           134.09      77.15       -139.26     
C           132.93      77.16       -138.41     
C           132.26      75.98       -138.06     
C           128.71      68.66       -137.6      
C           128.96      67.45       -138.2      
C           130.1       67.35       -139.09     
C           130.98      68.46       -139.29     
C           133.52      73.45       -141.63     
C           135.27      72.78       -139.8      
C           128.01      71.83       -137.62     
C           129.55      71.09       -135.66     
H           130.43      73.88       -137.21     
H           132.97      70.6        -140.01     
H           127.82      68.68       -136.97     
H           131.89      68.43       -139.87     
H           135.38      75.89       -140.48     
H           131.44      75.97       -137.33     
H           133.06      72.54       -141.93     
H           132.7       74.16       -141.87     
H           134.34838   73.57353    -142.32758  
H           135.31      71.66       -140.02     
H           136.08      73.28       -140.42     
H           135.5333    72.93655    -138.75393  
H           128.76      70.59       -135.11     
H           130.53      70.59       -135.46     
H           129.58657   72.07016    -135.18455  
H           128.04      72.91       -137.39     
H           127.24      71.4        -137.0      
H           127.76672   71.87423    -138.68158  
H           135.39      78.66       -140.09     
H           127.3       66.13       -137.56     
S           132.62      78.77       -137.73     
C           134.61      78.46       -139.35     
C           133.79      79.41       -138.85     
C           127.18      60.95       -138.82     
C           126.39      62.05       -138.32     
C           128.41      61.41       -139.28     
N           125.33      62.01       -137.58     
N           125.83      64.19       -137.9      
O           124.96      63.31       -137.36     
H           129.78      62.97       -139.73     
H           129.12      60.73       -139.65     
C           128.77      62.82       -139.34     
C           126.83      63.45       -138.47     
C           128.08      63.93       -139.02     
H           109.92      47.95       23.1        
H           127.01      59.96       -138.42     
