612

C           125.39      14.19       45.79       
C           125.67      15.21       46.7        
S           126.27      12.73       46.24       
C           129.79      14.8        51.22       
C           129.57      13.61       50.49       
C           130.29      12.41       50.76       
C           131.31      12.53       51.69       
C           131.59      13.78       52.34       
C           130.82      14.89       52.15       
C           132.02      11.42       52.57       
C           133.04      12.33       53.27       
C           132.68      13.66       53.19       
C           128.73      15.88       50.81       
C           128.05      15.14       49.7        
C           128.57      13.86       49.48       
C           134.04      11.97       54.15       
C           134.75      12.96       54.86       
C           134.37      14.29       54.7        
C           133.27      14.66       53.93       
C           127.13      15.61       48.83       
C           126.62      14.85       47.75       
C           127.04      13.52       47.6        
C           128.1       13.06       48.43       
C           132.86      10.4        51.81       
C           131.13      10.75       53.67       
C           129.51      17.14       50.33       
C           127.69      16.28       51.89       
H           131.05      15.85       52.65       
H           130.19      11.53       50.02       
H           126.76      16.64       49.02       
H           128.63      12.18       48.22       
H           134.43      10.95       54.34       
H           132.98      15.69       53.89       
H           132.25      9.69        51.2        
H           133.48      9.85        52.55       
H           133.44393   10.9056     51.04092    
H           130.71      11.55       54.33       
H           131.89      10.14       54.25       
H           130.34203   10.14334    53.22372    
H           127.2       17.22       51.58       
H           126.91      15.54       52.02       
H           128.13648   16.48884    52.86218    
H           130.09      17.55       51.12       
H           128.77      17.88       50.03       
H           130.12954   16.98333    49.44698    
H           136.37      11.8        55.78       
H           125.21      16.17       46.63       
S           135.52      15.28       55.57       
C           135.97      12.76       55.59       
C           136.48      13.88       55.99       
C           122.54      13.62       42.34       
C           122.7       14.94       42.92       
C           123.43      12.66       42.85       
N           122.12      16.11       42.7        
N           123.52      16.42       44.37       
O           122.56      17.05       43.63       
H           125.0       12.1        44.15       
H           123.47      11.75       42.35       
C           124.32      12.92       43.95       
C           123.62      15.15       44.05       
C           124.46      14.12       44.63       
C           113.14      10.31       28.99       
C           113.59      9.35        29.82       
S           113.52      11.89       29.71       
C           117.04      10.37       34.7        
C           116.53      11.5        34.02       
C           116.98      12.74       34.32       
C           117.78      12.9        35.35       
C           118.29      11.81       36.08       
C           117.98      10.52       35.69       
C           118.26      14.16       35.92       
C           119.01      13.71       37.19       
C           119.05      12.25       37.25       
C           116.48      9.08        34.09       
C           115.55      9.67        33.02       
C           115.62      11.06       32.95       
C           119.7       14.42       38.17       
C           120.42      13.78       39.21       
C           120.5       12.32       39.2        
C           119.8       11.59       38.21       
C           114.81      8.99        32.1        
C           114.26      9.77        31.02       
C           114.37      11.15       31.05       
C           114.94      11.81       32.03       
C           117.1       15.16       36.24       
C           119.32      14.94       35.15       
C           115.73      8.24        35.15       
C           117.57      8.22        33.34       
H           118.37      9.72        36.25       
H           116.61      13.48       33.64       
H           114.73      7.92        32.05       
H           115.09      12.94       32.04       
H           119.66      15.54       38.17       
H           119.83      10.54       38.24       
H           116.85      15.84       35.41       
H           117.63      15.75       37.02       
H           116.12928   14.79251    36.57282    
H           120.23      14.41       35.19       
H           119.6       15.87       35.58       
H           119.14323   14.98242    34.07527    
H           117.2       7.47        32.54       
H           118.2       8.94        32.75       
H           118.22116   7.65286     34.00516    
H           115.49      7.27        34.75       
H           116.33      8.04        36.03       
H           114.84199   8.7568      35.51394    
H           121.44      15.37       40.41       
H           113.58      8.28        29.56       
S           121.33      11.67       40.63       
C           121.2       14.3        40.34       
C           121.72      13.31       41.16       
C           111.07      10.32       25.01       
C           111.34      9.09        25.74       
C           111.46      11.45       25.7        
N           111.1       7.82        25.35       
N           112.27      7.83        27.32       
O           111.53      7.07        26.42       
H           112.34      12.41       27.34       
H           111.27      12.5        25.41       
C           112.1       11.44       26.97       
C           112.07      9.11        26.98       
C           112.55      10.3        27.65       
C           110.35      13.66       8.93        
C           110.23      14.58       9.85        
S           110.27      12.09       9.57        
C           109.67      13.15       15.82       
C           109.82      12.02       14.92       
C           109.78      10.72       15.54       
C           109.66      10.6        16.87       
C           109.57      11.75       17.72       
C           109.49      13.02       17.2        
C           109.67      9.32        17.7        
C           109.72      9.94        19.14       
C           109.59      11.34       19.1        
C           109.79      14.47       15.05       
C           110.03      13.96       13.63       
C           109.81      12.58       13.55       
C           109.74      9.22        20.33       
C           109.9       9.95        21.51       
C           110.06      11.36       21.38       
C           109.73      12.12       20.24       
C           110.04      14.7        12.43       
C           110.11      14.07       11.21       
C           109.99      12.68       11.21       
C           109.83      11.93       12.35       
C           110.99      8.5         17.5        
C           108.43      8.38        17.54       
C           110.99      15.31       15.57       
C           108.46      15.35       15.04       
H           109.41      13.86       17.9        
H           109.8       9.85        14.95       
H           110.26      15.77       12.49       
H           109.82      10.89       12.29       
H           109.75      8.15        20.29       
H           109.87      13.2        20.27       
H           110.94      7.78        18.36       
H           111.02      7.84        16.61       
H           111.92619   9.05608     17.54927    
H           108.51      7.94        16.58       
H           108.32      7.64        18.28       
H           107.48546   8.92382     17.55431    
H           108.36      16.0        15.97       
H           108.56      16.04       14.2        
H           107.54918   14.75474    14.97545    
H           110.97      16.33       15.29       
H           111.03      15.43       16.65       
H           111.94157   14.84463    15.31301    
H           110.06      8.43        23.09       
H           110.4       15.62       9.62        
S           110.54      12.0        22.89       
C           110.11      9.46        22.83       
C           110.51      10.44       23.65       
C           112.22      13.59       5.03        
C           111.08      12.81       5.34        
C           112.6       14.4        6.07        
N           110.52      11.89       4.63        
N           109.47      11.87       6.57        
O           109.56      11.29       5.35        
H           112.35      15.16       8.14        
H           113.6       14.86       6.07        
C           111.92      14.53       7.33        
C           110.4       12.81       6.59        
C           110.87      13.73       7.62        
C           124.13      8.62        -5.41       
C           124.36      9.42        -4.32       
S           122.4       8.35        -5.52       
C           120.04      12.03       -0.99       
C           119.57      11.13       -1.9        
C           118.22      10.72       -2.07       
C           117.35      11.22       -1.12       
C           117.75      12.17       -0.21       
C           119.04      12.68       -0.23       
C           115.95      10.62       -0.88       
C           115.55      11.51       0.3         
C           116.55      12.46       0.64        
C           121.57      12.22       -1.09       
C           121.89      11.13       -2.05       
C           120.64      10.59       -2.63       
C           114.32      11.54       0.91        
C           114.15      12.4        1.99        
C           115.19      13.28       2.33        
C           116.38      13.41       1.63        
C           123.14      10.8        -2.59       
C           123.17      9.87        -3.64       
C           122.01      9.31        -4.1        
C           120.75      9.73        -3.65       
C           116.04      9.15        -0.37       
C           115.04      10.79       -2.14       
C           122.3       11.98       0.25        
C           122.04      13.52       -1.82       
H           119.35      13.42       0.45        
H           117.99      9.83        -2.68       
H           124.05      11.17       -2.18       
H           119.8       9.42        -4.09       
H           113.52      10.82       0.71        
H           117.2       14.03       1.95        
H           115.09      8.75        -0.35       
H           116.58      8.73        -1.16       
H           116.6423    9.05451     0.53345     
H           115.43      10.12       -2.94       
H           114.1       10.31       -2.02       
H           115.08354   11.79144    -2.56815    
H           123.1       13.7        -1.48       
H           121.95      13.55       -2.86       
H           121.63541   14.43203    -1.38113    
H           122.0       12.77       0.93        
H           123.36      12.04       0.08        
H           122.06082   11.02327    0.71429     
H           112.21      11.8        2.8         
H           125.33      9.82        -4.18       
S           114.67      14.22       3.7         
C           113.04      12.48       2.85        
C           113.14      13.37       3.86        
C           126.49      8.07        -8.99       
C           127.03      8.78        -7.88       
C           125.3       7.46        -8.81       
N           128.19      9.38        -7.76       
N           127.05      9.49        -5.83       
O           128.17      9.86        -6.48       
H           123.58      7.21        -7.61       
H           124.85      6.89        -9.62       
C           124.6       7.6         -7.59       
C           126.35      8.79        -6.65       
C           125.01      8.3         -6.5        
C           127.09      16.6        -22.51      
C           126.05      15.85       -22.01      
S           128.58      16.19       -21.62      
C           126.43      11.07       -18.22      
C           127.63      11.85       -18.38      
C           128.79      11.67       -17.6       
C           128.65      10.78       -16.54      
C           127.47      10.04       -16.22      
C           126.36      10.15       -17.11      
C           129.56      10.74       -15.35      
C           128.8       9.83        -14.35      
C           127.63      9.33        -14.92      
C           125.32      11.63       -19.19      
C           126.03      12.9        -19.78      
C           127.42      12.93       -19.42      
C           129.21      9.46        -13.11      
C           128.32      8.76        -12.28      
C           127.16      8.21        -12.93      
C           126.88      8.41        -14.24      
C           125.57      13.78       -20.72      
C           126.4       14.77       -21.21      
C           127.76      14.81       -20.83      
C           128.27      13.96       -19.85      
C           129.7       12.15       -14.77      
C           131.0       10.31       -15.67      
C           124.13      12.09       -18.29      
C           124.93      10.63       -20.33      
H           125.34      9.76        -16.86      
H           129.7       12.23       -17.76      
H           124.59      13.77       -21.12      
H           129.35      13.98       -19.57      
H           130.07      9.99        -12.71      
H           125.9       8.15        -14.63      
H           130.18      12.72       -15.58      
H           130.32      12.43       -13.85      
H           128.73276   12.59806    -14.54241   
H           131.3       10.87       -16.56      
H           131.59      10.5        -14.73      
H           131.05747   9.26842     -15.98607   
H           123.93      10.98       -20.64      
H           125.61      10.55       -21.2       
H           124.7213    9.62249     -19.97018   
H           123.2       12.06       -18.84      
H           124.03      11.31       -17.53      
H           124.42181   13.02795    -17.81755   
H           129.16      8.88        -10.22      
H           125.08      16.09       -22.38      
S           126.2       7.47        -11.73      
C           128.32      8.54        -10.82      
C           127.09      8.05        -10.35      
C           127.09      19.86       -25.59      
C           128.24      19.57       -24.79      
C           125.99      19.17       -25.17      
N           129.4       20.19       -24.79      
N           129.52      18.58       -23.16      
O           130.19      19.57       -23.89      
H           125.07      17.52       -24.15      
H           125.02      19.48       -25.58      
C           126.0       18.1        -24.19      
C           128.24      18.59       -23.7       
C           127.09      17.76       -23.43      
C           128.61      24.28       -41.38      
C           127.5       23.59       -40.92      
S           129.77      24.73       -40.09      
C           126.83      22.37       -34.96      
C           127.82      23.26       -35.29      
C           128.51      23.91       -34.27      
C           128.34      23.47       -32.97      
C           127.39      22.48       -32.66      
C           126.63      21.94       -33.65      
C           129.08      23.88       -31.68      
C           128.28      23.11       -30.58      
C           127.33      22.25       -31.21      
C           126.03      22.01       -36.22      
C           126.85      22.75       -37.35      
C           127.83      23.49       -36.7       
C           128.44      23.09       -29.2       
C           127.7       22.19       -28.45      
C           126.7       21.45       -29.1       
C           126.47      21.4        -30.48      
C           126.64      22.69       -38.68      
C           127.56      23.39       -39.49      
C           128.69      24.11       -38.88      
C           128.74      24.21       -37.46      
C           128.83      25.42       -31.46      
C           130.59      23.48       -31.77      
C           124.61      22.64       -35.96      
C           126.04      20.5        -36.44      
H           125.77      21.3        -33.39      
H           129.22      24.72       -34.43      
H           125.88      22.1        -39.17      
H           129.48      24.77       -36.94      
H           129.35      23.46       -28.7       
H           125.71      20.75       -30.92      
H           129.68      26.0        -31.15      
H           128.61      25.85       -32.41      
H           127.90367   25.66562    -30.94069   
H           130.87      23.73       -32.82      
H           131.2       24.04       -31.04      
H           130.75666   22.4076     -31.66856   
H           125.29      20.11       -35.72      
H           125.77      20.16       -37.46      
H           127.04306   20.07694    -36.38541   
H           124.17      22.22       -35.1       
H           124.75      23.67       -35.67      
H           123.8574    22.64717    -36.74844   
H           128.63      22.14       -26.4       
H           126.69      23.13       -41.48      
S           125.83      20.49       -27.89      
C           127.84      21.85       -27.05      
C           126.97      20.86       -26.62      
C           129.5       26.16       -45.28      
C           128.62      25.06       -45.19      
C           130.19      26.42       -44.12      
N           127.82      24.57       -46.11      
N           127.4       23.42       -44.17      
O           127.09      23.65       -45.47      
H           130.38      26.19       -42.04      
H           130.94      27.2        -44.05      
C           129.76      25.86       -42.86      
C           128.27      24.41       -43.92      
C           128.91      24.82       -42.68      
C           132.05      36.54       -57.79      
C           132.72      36.63       -56.54      
S           131.16      35.01       -57.91      
C           132.28      32.41       -52.26      
C           131.51      32.16       -53.39      
C           130.79      30.97       -53.57      
C           130.65      30.09       -52.49      
C           131.32      30.49       -51.33      
C           132.24      31.54       -51.23      
C           129.58      28.98       -52.3       
C           129.87      28.69       -50.87      
C           130.89      29.55       -50.34      
C           133.09      33.66       -52.38      
C           132.59      34.17       -53.7       
C           131.79      33.27       -54.34      
C           129.25      27.83       -49.93      
C           129.79      27.64       -48.62      
C           130.9       28.38       -48.21      
C           131.43      29.41       -49.02      
C           132.98      35.29       -54.45      
C           132.5       35.52       -55.69      
C           131.74      34.5        -56.33      
C           131.31      33.39       -55.67      
C           129.92      27.75       -53.24      
C           128.17      29.48       -52.58      
C           134.65      33.54       -52.59      
C           132.76      34.73       -51.25      
H           132.74      31.69       -50.27      
H           130.23      30.87       -54.53      
H           133.74      36.02       -54.06      
H           130.61      32.76       -56.16      
H           128.46      27.21       -50.33      
H           132.07      30.12       -48.58      
H           129.67      27.98       -54.25      
H           131.0       27.56       -53.25      
H           129.44182   26.82219    -52.92597   
H           128.13      29.71       -53.71      
H           127.49      28.71       -52.24      
H           127.99613   30.42905    -52.07287   
H           133.05      35.7        -51.67      
H           131.65      34.78       -51.2       
H           133.16097   34.53694    -50.25499   
H           135.16      33.25       -51.65      
H           135.03      34.51       -52.88      
H           134.93318   32.84932    -53.38428   
H           128.37      26.22       -47.9       
H           133.28      37.51       -56.26      
S           131.24      27.97       -46.49      
C           129.25      26.84       -47.65      
C           129.8       26.93       -46.47      
C           131.92      39.51       -61.01      
C           132.86      39.65       -59.97      
C           131.15      38.38       -60.89      
N           133.64      40.68       -59.75      
N           133.98      39.05       -58.1       
O           134.36      40.3        -58.64      
H           130.51      36.69       -59.78      
H           130.31      38.09       -61.49      
C           131.23      37.49       -59.78      
C           132.98      38.67       -58.95      
C           132.12      37.52       -58.84      
C           124.69      49.62       -71.8       
C           124.37      48.36       -71.76      
S           126.21      50.04       -71.07      
C           127.59      44.39       -68.34      
C           128.01      45.8        -68.36      
C           128.99      46.3        -67.48      
C           129.46      45.47       -66.48      
C           129.03      44.14       -66.44      
C           128.0       43.6        -67.28      
C           130.32      45.76       -65.26      
C           130.53      44.37       -64.65      
C           129.77      43.48       -65.37      
C           126.28      44.25       -69.14      
C           126.13      45.7        -69.68      
C           127.16      46.55       -69.3       
C           131.49      43.94       -63.69      
C           131.35      42.59       -63.24      
C           130.39      41.78       -63.88      
C           129.64      42.18       -64.97      
C           125.2       46.18       -70.61      
C           125.27      47.53       -71.0       
C           126.27      48.37       -70.54      
C           127.24      47.91       -69.67      
C           129.52      46.66       -64.33      
C           131.63      46.37       -65.67      
C           125.04      43.86       -68.29      
C           126.52      43.36       -70.41      
H           127.83      42.5        -67.23      
H           129.36      47.31       -67.53      
H           124.4       45.53       -70.91      
H           128.03      48.58       -69.36      
H           132.18      44.56       -63.18      
H           128.96      41.5        -65.4       
H           129.9       47.66       -64.51      
H           128.48      46.59       -64.53      
H           129.54196   46.44768    -63.2611    
H           131.33      47.31       -66.25      
H           132.26      46.78       -64.81      
H           132.20819   45.75656    -66.361     
H           125.54      43.25       -70.89      
H           127.23      43.85       -71.07      
H           126.95024   42.37961    -70.20546   
H           125.29      43.02       -67.61      
H           124.27      43.47       -68.89      
H           124.52442   44.6835     -67.7959    
H           132.77      42.22       -61.59      
H           123.46      47.99       -72.21      
S           130.42      40.15       -63.23      
C           132.01      41.84       -62.18      
C           131.55      40.56       -61.98      
C           122.25      52.64       -73.81      
C           122.33      51.3        -74.27      
C           122.93      52.88       -72.69      
N           121.6       50.72       -75.26      
N           123.04      49.19       -74.34      
O           122.12      49.46       -75.33      
H           124.34      52.27       -71.14      
H           122.97      53.9        -72.27      
C           123.78      51.89       -71.99      
C           123.15      50.34       -73.64      
C           123.89      50.59       -72.44      
C           111.77      64.66       -78.08      
C           112.27      64.32       -76.82      
S           112.65      63.71       -79.28      
C           116.88      60.5        -75.78      
C           116.38      60.51       -77.16      
C           116.88      59.63       -78.08      
C           117.88      58.71       -77.59      
C           118.17      58.62       -76.22      
C           117.73      59.56       -75.28      
C           118.55      57.6        -78.44      
C           119.15      56.81       -77.25      
C           118.93      57.49       -75.99      
C           116.06      61.44       -74.95      
C           115.04      62.05       -75.99      
C           115.27      61.47       -77.26      
C           119.9       55.65       -77.21      
C           120.48      55.14       -76.02      
C           120.22      55.79       -74.83      
C           119.42      56.97       -74.75      
C           114.15      63.07       -75.73      
C           113.38      63.44       -76.8       
C           113.6       62.91       -78.09      
C           114.53      61.93       -78.31      
C           119.63      58.22       -79.35      
C           117.64      56.6        -79.17      
C           117.04      62.51       -74.41      
C           115.44      60.76       -73.7       
H           117.98      59.45       -74.23      
H           116.53      59.51       -79.08      
H           113.97      63.33       -74.71      
H           114.77      61.66       -79.26      
H           120.16      55.09       -78.11      
H           119.25      57.49       -73.82      
H           119.16      59.0        -80.03      
H           120.01      57.39       -80.01      
H           120.39466   58.74393    -78.77651   
H           117.06      56.03       -78.41      
H           118.35      55.85       -79.63      
H           117.00883   56.95766    -79.98351   
H           116.13      60.56       -72.91      
H           114.75      61.42       -73.23      
H           114.89748   59.84629    -73.9427    
H           117.69      61.99       -73.76      
H           116.6       63.19       -73.72      
H           117.71651   62.90056    -75.1702    
H           121.56      53.33       -76.7       
H           111.92      64.84       -75.87      
S           120.88      54.98       -73.44      
C           121.21      53.93       -75.86      
C           121.53      53.66       -74.49      
C           108.18      66.93       -79.52      
C           109.53      67.25       -79.98      
C           108.2       65.88       -78.65      
N           109.93      68.12       -80.92      
N           111.77      67.08       -80.08      
O           111.29      67.97       -81.03      
H           109.03      64.31       -77.46      
H           107.15      65.55       -78.31      
C           109.34      65.2        -78.06      
C           110.7       66.57       -79.49      
C           110.61      65.49       -78.48      
C           95.73       67.68       -90.35      
C           95.65       66.9        -89.22      
S           97.12       68.79       -90.36      
C           99.81       67.44       -84.78      
C           99.96       68.3        -85.87      
C           101.16      69.04       -85.96      
C           102.06      68.97       -84.92      
C           101.86      68.17       -83.86      
C           100.73      67.34       -83.77      
C           103.44      69.55       -84.89      
C           103.97      69.0        -83.55      
C           103.03      68.11       -83.01      
C           98.57       66.5        -85.03      
C           97.92       67.11       -86.25      
C           98.83       68.1        -86.72      
C           105.24      69.01       -83.04      
C           105.66      68.23       -81.98      
C           104.72      67.41       -81.35      
C           103.36      67.35       -81.85      
C           96.84       66.7        -86.95      
C           96.62       67.2        -88.25      
C           97.51       68.26       -88.7       
C           98.6        68.71       -87.91      
C           103.47      71.14       -84.83      
C           104.31      69.02       -86.06      
C           97.52       66.54       -83.88      
C           99.05       65.02       -85.25      
H           100.63      66.62       -83.01      
H           101.4       69.77       -86.71      
H           96.27       65.87       -86.52      
H           99.22       69.56       -88.21      
H           105.93      69.7        -83.46      
H           102.61      66.67       -81.39      
H           104.3       71.55       -85.37      
H           102.65      71.41       -85.39      
H           103.55521   71.59447    -83.84294   
H           103.86      69.36       -86.96      
H           105.18      69.67       -86.03      
H           104.36115   67.93123    -86.06731   
H           99.12       64.61       -84.27      
H           98.3        64.45       -85.68      
H           99.97301    64.95354    -85.82596   
H           97.72       65.92       -83.06      
H           96.71       66.0        -84.48      
H           97.19534    67.52121    -83.53369   
H           107.69      68.7        -81.71      
H           94.88       66.15       -89.05      
S           105.46      66.69       -79.92      
C           106.91      68.18       -81.32      
C           107.02      67.44       -80.18      
C           92.77       68.79       -93.53      
C           92.44       68.05       -92.34      
C           94.13       69.07       -93.57      
N           91.3        67.58       -91.99      
N           92.76       66.9        -90.43      
O           91.48       66.84       -90.92      
H           96.15       68.8        -92.84      
H           94.44       69.59       -94.41      
C           95.13       68.56       -92.63      
C           93.4        67.54       -91.42      
C           94.81       67.92       -91.44      
H           137.4       13.87       56.56       
H           92.09       69.52       -94.06      
