612

C           38.08       5.13        38.34       
C           37.52       6.39        38.4        
S           36.87       3.9         37.78       
C           31.5        7.21        37.67       
C           32.02       5.91        37.31       
C           31.21       4.95        36.84       
C           29.84       5.16        36.74       
C           29.22       6.41        37.22       
C           30.11       7.44        37.63       
C           28.65       4.24        36.33       
C           27.42       5.08        36.61       
C           27.73       6.32        37.21       
C           32.65       8.04        38.17       
C           33.9        7.25        37.88       
C           33.48       5.95        37.44       
C           26.15       4.63        36.38       
C           25.07       5.44        36.85       
C           25.45       6.66        37.58       
C           26.74       7.12        37.71       
C           35.16       7.49        38.27       
C           36.09       6.4         38.11       
C           35.7        5.16        37.7        
C           34.4        4.93        37.22       
C           28.51       2.88        37.04       
C           28.49       4.12        34.8        
C           32.48       8.29        39.61       
C           32.89       9.43        37.42       
H           29.72       8.39        37.94       
H           31.69       3.97        36.53       
H           35.44       8.4         38.81       
H           34.25       3.95        36.83       
H           25.98       3.69        35.99       
H           26.92       8.11        38.12       
H           29.37       2.24        36.97       
H           27.6        2.3         36.75       
H           28.46039    2.97922     38.12434    
H           28.55       5.17        34.44       
H           27.55       3.68        34.39       
H           29.29078    3.55307     34.3252     
H           32.48       10.23       38.02       
H           33.97       9.58        37.32       
H           32.34884    9.52136     36.47825    
H           31.63       9.03        39.65       
H           33.38       8.74        39.96       
H           32.2207     7.37525     40.143      
H           23.14       4.46        36.19       
H           38.19       7.3         38.57       
S           24.02       7.63        37.92       
C           23.67       5.29        36.76       
C           22.97       6.29        37.35       
C           42.4        4.27        38.83       
C           41.68       5.2         39.62       
C           41.53       3.54        37.95       
N           42.13       6.02        40.59       
N           39.94       6.49        40.26       
O           41.02       6.77        41.0        
H           39.63       3.11        37.24       
H           41.98       2.62        37.54       
C           40.12       3.79        37.89       
C           40.27       5.52        39.47       
C           39.48       4.77        38.63       
C           58.66       1.18        37.34       
C           57.74       0.88        36.37       
S           57.86       1.38        38.86       
C           51.73       1.72        37.12       
C           52.54       1.97        38.25       
C           52.0        2.28        39.49       
C           50.61       2.54        39.55       
C           49.78       2.28        38.4        
C           50.36       1.82        37.18       
C           49.77       3.3         40.63       
C           48.4        3.41        39.95       
C           48.43       2.78        38.66       
C           52.6        1.61        35.91       
C           54.04       1.46        36.49       
C           53.95       1.77        37.9        
C           47.19       3.9         40.47       
C           46.02       3.77        39.66       
C           46.16       3.31        38.36       
C           47.34       2.76        37.89       
C           55.29       1.12        35.93       
C           56.38       1.12        36.73       
C           56.34       1.41        38.09       
C           55.15       1.84        38.68       
C           50.24       4.67        40.88       
C           49.51       2.54        41.94       
C           52.45       2.95        35.09       
C           52.39       0.37        35.02       
H           49.78       1.82        36.29       
H           52.68       2.47        40.32       
H           55.44       1.01        34.88       
H           55.08       2.1         39.7        
H           47.13       4.27        41.51       
H           47.44       2.45        36.86       
H           51.32       4.68        40.93       
H           49.89       4.96        41.86       
H           49.9656     5.42986     40.14828    
H           49.08       1.6         41.75       
H           48.82       3.13        42.56       
H           50.34709    2.24205     42.57136    
H           53.29       0.2         34.39       
H           52.25       -0.47       35.69       
H           51.51761    0.40546     34.36748    
H           51.49       2.94        34.52       
H           52.32       3.76        35.83       
H           53.29368    3.16615     34.43458    
H           44.36       4.38        40.93       
H           58.09       0.57        35.36       
S           44.6        3.24        37.53       
C           44.66       4.09        39.98       
C           43.78       3.9         38.92       
C           63.04       0.43        36.91       
C           62.41       1.21        37.99       
C           62.03       0.08        36.04       
N           63.03       1.9         38.96       
N           60.79       2.28        39.19       
O           62.05       2.46        39.69       
H           60.04       -0.11       35.5        
H           62.29       -0.47       35.11       
C           60.66       0.32        36.27       
C           61.03       1.47        38.2        
C           60.07       1.02        37.28       
C           78.95       0.65        33.02       
C           78.46       1.39        34.08       
S           77.77       -0.53       32.48       
C           72.85       0.68        36.1        
C           73.16       -0.14       34.99       
C           72.26       -0.96       34.34       
C           70.94       -0.77       34.82       
C           70.57       0.0         35.92       
C           71.54       0.78        36.55       
C           69.81       -1.66       34.37       
C           68.66       -1.07       35.15       
C           69.07       -0.03       36.02       
C           74.08       1.48        36.58       
C           75.08       1.04        35.59       
C           74.57       0.03        34.78       
C           67.26       -1.33       34.94       
C           66.35       -0.61       35.82       
C           66.89       0.28        36.79       
C           68.25       0.69        36.82       
C           76.38       1.52        35.4        
C           77.13       0.99        34.41       
C           76.65       -0.12       33.73       
C           75.39       -0.59       33.91       
C           70.06       -3.13       34.87       
C           69.5        -1.62       32.86       
C           74.27       1.07        38.07       
C           73.98       2.96        36.42       
H           71.29       1.45        37.39       
H           72.47       -1.55       33.47       
H           76.82       2.25        36.14       
H           75.08       -1.43       33.23       
H           66.85       -1.96       34.2        
H           68.55       1.54        37.37       
H           70.83       -3.56       34.32       
H           70.39       -3.09       35.92       
H           69.21577    -3.81816    34.82743    
H           70.36       -2.2        32.37       
H           68.61       -2.21       32.63       
H           69.60037    -0.6235     32.42986    
H           74.93       3.44        36.5        
H           73.72       3.17        35.4        
H           73.36898    3.51213     37.13408    
H           74.6        1.93        38.66       
H           73.25       0.92        38.51       
H           74.8682     0.16541     38.17943    
H           64.3        -1.35       35.19       
H           79.02       2.17        34.54       
S           65.6        0.94        37.69       
C           64.89       -0.68       35.86       
C           64.37       0.04        36.82       
C           82.67       1.66        31.04       
C           81.78       2.7         31.63       
C           82.26       0.34        31.25       
N           82.02       3.98        31.51       
N           80.01       3.53        32.6        
O           80.93       4.53        32.14       
H           80.74       -0.94       32.04       
H           82.83       -0.48       30.87       
C           81.03       0.09        31.9        
C           80.53       2.4         32.17       
C           80.15       1.06        32.33       
C           98.16       6.89        29.14       
C           97.86       5.76        29.86       
S           96.76       7.64        28.39       
C           92.23       3.28        29.46       
C           92.4        4.53        28.8        
C           91.29       5.17        28.28       
C           90.04       4.65        28.52       
C           89.89       3.4         29.2        
C           91.04       2.67        29.63       
C           88.7        5.33        28.37       
C           87.73       4.18        28.69       
C           88.42       3.09        29.21       
C           93.56       2.84        30.13       
C           94.44       4.02        29.71       
C           93.78       4.97        28.88       
C           86.33       4.33        28.78       
C           85.65       3.26        29.23       
C           86.38       2.05        29.67       
C           87.78       1.97        29.57       
C           95.77       4.14        29.95       
C           96.49       5.34        29.58       
C           95.79       6.26        28.77       
C           94.46       6.11        28.4        
C           88.61       5.77        26.91       
C           88.5        6.56        29.35       
C           94.01       1.55        29.4        
C           93.48       2.61        31.66       
H           90.99       1.72        30.13       
H           91.38       6.12        27.77       
H           96.32       3.34        30.49       
H           94.05       6.82        27.67       
H           85.83       5.31        28.66       
H           88.31       1.04        29.79       
H           87.74       6.43        26.79       
H           89.45       6.41        26.72       
H           88.61695    4.88729     26.27056    
H           89.07       7.37        29.11       
H           87.46       7.04        29.32       
H           88.75725    6.28189     30.37205    
H           92.52       2.08        31.92       
H           94.26       1.89        31.9        
H           93.61538    3.52916     32.23002    
H           93.43       0.67        29.81       
H           95.08       1.35        29.69       
H           93.89663    1.55709     28.31593    
H           83.61       4.0         29.41       
H           98.51       5.25        30.53       
S           85.26       0.93        30.38       
C           84.21       3.16        29.55       
C           83.85       2.02        30.26       
C           102.08      8.99        28.72       
C           101.89      7.77        29.39       
C           100.9       9.39        28.06       
N           102.73      7.15        30.17       
N           100.89      5.95        30.29       
O           102.18      5.95        30.55       
H           98.72       9.17        27.84       
H           100.92      10.4        27.7        
C           99.61       8.73        28.24       
C           100.65      7.03        29.55       
C           99.48       7.55        28.92       
C           113.35      20.97       29.47       
C           112.32      20.88       28.58       
S           113.53      19.51       30.42       
C           108.82      15.93       27.95       
C           109.61      15.92       29.13       
C           109.61      14.85       30.0        
C           108.74      13.81       29.8        
C           107.87      13.82       28.63       
C           107.99      14.86       27.71       
C           108.32      12.62       30.65       
C           107.28      11.96       29.8        
C           106.91      12.78       28.73       
C           108.93      17.27       27.24       
C           109.99      17.88       28.14       
C           110.43      17.09       29.18       
C           106.53      10.89       30.15       
C           105.39      10.66       29.37       
C           105.02      11.55       28.35       
C           105.8       12.53       27.97       
C           110.63      19.07       27.81       
C           111.61      19.59       28.62       
C           112.08      18.8        29.71       
C           111.52      17.56       29.98       
C           107.74      13.23       31.96       
C           109.55      11.63       30.93       
C           107.52      18.01       27.32       
C           109.52      17.19       25.77       
H           107.35      14.85       26.87       
H           110.26      14.83       30.86       
H           110.22      19.68       26.99       
H           111.92      16.99       30.87       
H           106.66      10.3        31.04       
H           105.43      13.23       27.25       
H           108.52      13.72       32.54       
H           107.31      12.48       32.65       
H           107.03728   14.03919    31.76125    
H           110.24      12.2        31.55       
H           109.23      10.75       31.51       
H           110.12987   11.45901    30.02302    
H           109.59      18.18       25.39       
H           110.49      16.73       25.83       
H           108.93534   16.61265    25.0538     
H           107.48      18.73       26.51       
H           106.73      17.25       27.1        
H           107.39901   18.45128    28.30931    
H           104.58      8.84        30.24       
H           112.05      21.68       27.95       
S           103.46      11.15       27.64       
C           104.44      9.65        29.52       
C           103.34      9.76        28.73       
C           115.95      24.54       29.84       
C           114.6       24.6        29.41       
C           116.29      23.28       30.13       
N           113.95      25.59       28.93       
N           112.51      23.86       28.99       
O           112.63      25.25       28.8        
H           115.92      21.24       30.52       
H           117.26      23.02       30.53       
C           115.41      22.17       30.26       
C           113.68      23.47       29.44       
C           114.07      22.17       29.84       
C           125.74      37.88       30.46       
C           124.35      37.89       30.4        
S           126.3       36.25       30.88       
C           120.92      32.94       30.77       
C           122.29      32.66       31.09       
C           122.85      31.44       31.12       
C           121.99      30.37       31.08       
C           120.59      30.61       30.98       
C           120.08      31.86       30.73       
C           122.27      28.87       30.93       
C           120.82      28.27       30.86       
C           119.86      29.34       30.77       
C           120.62      34.43       30.77       
C           122.02      35.0        30.93       
C           123.01      33.93       31.09       
C           120.37      26.98       30.79       
C           119.05      26.72       30.43       
C           118.15      27.79       30.31       
C           118.53      29.12       30.44       
C           122.44      36.29       30.68       
C           123.77      36.6        30.69       
C           124.67      35.6        30.97       
C           124.38      34.25       31.15       
C           122.95      28.32       32.24       
C           123.19      28.45       29.76       
C           119.72      34.86       31.95       
C           119.96      34.83       29.38       
H           119.01      31.97       30.44       
H           123.92      31.32       31.24       
H           121.78      37.12       30.54       
H           125.15      33.48       31.16       
H           121.05      26.11       30.76       
H           117.82      29.97       30.38       
H           123.06      27.25       32.2        
H           123.97      28.69       32.34       
H           122.3802    28.58298    33.13122    
H           124.11      29.0        29.85       
H           123.62      27.43       29.94       
H           122.8025    28.58147    28.74972    
H           119.84      35.94       29.44       
H           120.63      34.67       28.54       
H           118.97149   34.4374     29.14164    
H           119.29      35.81       31.73       
H           118.84      34.15       32.02       
H           120.30039   34.96031    32.86716    
H           118.88      24.49       30.43       
H           123.84      38.78       30.12       
S           116.58      27.24       29.8        
C           118.34      25.43       30.28       
C           117.0       25.55       29.93       
C           128.22      41.39       29.57       
C           128.76      40.27       30.24       
C           126.89      41.28       29.2        
N           129.91      40.1        30.75       
N           128.66      38.33       31.34       
O           129.9       38.91       31.4        
H           125.15      40.08       28.88       
H           126.35      42.09       28.68       
C           126.12      40.11       29.41       
C           127.92      39.15       30.6        
C           126.58      38.99       30.12       
C           134.72      54.97       22.74       
C           133.4       54.54       22.7        
S           135.62      54.09       23.98       
C           131.13      50.02       26.03       
C           132.46      50.26       26.29       
C           133.19      49.4        27.15       
C           132.57      48.24       27.63       
C           131.18      48.06       27.38       
C           130.45      49.05       26.64       
C           133.15      47.12       28.44       
C           131.89      46.26       28.51       
C           130.72      46.86       28.03       
C           130.58      50.94       24.96       
C           131.79      51.79       24.68       
C           132.93      51.37       25.45       
C           131.81      45.0        29.03       
C           130.63      44.32       29.05       
C           129.47      44.97       28.62       
C           129.53      46.23       28.01       
C           131.93      52.7        23.7        
C           133.12      53.42       23.61       
C           134.25      53.06       24.4        
C           134.2       52.01       25.35       
C           133.72      47.71       29.81       
C           134.31      46.39       27.67       
C           129.55      51.89       25.53       
C           130.14      50.3        23.58       
H           129.45      48.82       26.44       
H           134.19      49.56       27.29       
H           131.06      52.98       23.14       
H           135.08      51.69       25.91       
H           132.72      44.57       29.56       
H           128.63      46.69       27.56       
H           134.77      47.52       29.98       
H           133.75      48.8        29.66       
H           133.09245   47.52967    30.68279    
H           134.97      47.19       27.41       
H           134.68      45.7        28.39       
H           134.05951   45.86754    26.74675    
H           129.73      51.11       22.99       
H           130.9       49.86       22.99       
H           129.35127   49.55315    23.67074    
H           128.58      51.32       25.43       
H           129.5       52.78       24.88       
H           129.75162   52.27164    26.5309     
H           131.02      42.2        29.77       
H           132.7       54.93       21.98       
S           128.1       43.93       28.68       
C           130.31      42.98       29.45       
C           128.99      42.64       29.3        
C           136.7       57.96       20.12       
C           135.37      57.47       19.91       
C           137.36      57.24       21.09       
N           134.45      57.87       19.08       
N           133.52      56.32       20.24       
O           133.28      57.27       19.29       
H           137.24      55.95       22.88       
H           138.4       57.46       21.3        
C           136.71      56.3        21.99       
C           134.75      56.47       20.71       
C           135.45      55.79       21.82       
C           143.07      72.01       13.94       
C           143.57      71.49       15.15       
S           141.81      70.99       13.29       
C           141.12      66.44       17.65       
C           140.44      66.96       16.53       
C           139.27      66.42       15.94       
C           138.93      65.21       16.42       
C           139.65      64.58       17.45       
C           140.63      65.24       18.14       
C           137.92      64.25       15.79       
C           137.99      63.1        16.81       
C           139.02      63.29       17.76       
C           142.14      67.43       18.14       
C           142.14      68.49       17.06       
C           141.12      68.17       16.16       
C           137.26      61.9        16.9        
C           137.5       60.99       17.97       
C           138.57      61.22       18.89       
C           139.35      62.41       18.8        
C           143.01      69.58       16.84       
C           142.8       70.32       15.63       
C           141.75      70.01       14.76       
C           140.93      68.88       14.96       
C           138.37      63.75       14.32       
C           136.5       64.85       15.85       
C           143.55      66.75       18.04       
C           142.01      68.15       19.54       
H           141.2       64.79       18.93       
H           138.78      66.84       15.03       
H           143.76      69.84       17.62       
H           140.11      68.66       14.22       
H           136.41      61.69       16.29       
H           140.19      62.65       19.48       
H           138.73      64.61       13.67       
H           139.1       62.97       14.51       
H           137.54393   63.36545    13.72181    
H           136.49      65.6        15.0        
H           135.68      64.22       15.69       
H           136.24481   65.43126    16.73607    
H           142.58      67.65       20.23       
H           142.49      69.13       19.46       
H           140.98727   68.26285    19.89972    
H           143.6       65.87       18.66       
H           144.25      67.43       18.49       
H           143.89277   66.58226    17.01898    
H           135.92      59.48       17.72       
H           144.33      71.86       15.74       
S           138.58      60.01       20.12       
C           136.77      59.83       18.32       
C           137.24      59.14       19.42       
C           144.64      74.6        10.68       
C           145.46      74.32       11.87       
C           143.33      74.18       10.8        
N           146.66      74.71       12.25       
N           145.97      73.19       13.75       
O           147.01      74.0        13.42       
H           141.87      73.03       11.78       
H           142.67      74.38       9.98        
C           142.84      73.38       11.85       
C           144.91      73.52       12.98       
C           143.6       73.0        12.99       
C           148.57      83.28       -2.88       
C           147.3       82.92       -2.51       
S           149.79      82.66       -1.81       
C           146.2       79.6        2.38        
C           147.58      79.77       2.24        
C           148.58      79.41       3.17        
C           148.14      78.73       4.3         
C           146.77      78.41       4.48        
C           145.81      78.94       3.59        
C           148.92      78.11       5.44        
C           147.84      77.5        6.34        
C           146.58      77.64       5.68        
C           145.27      80.15       1.27        
C           146.32      80.74       0.41        
C           147.64      80.58       0.97        
C           147.92      76.7        7.44        
C           146.73      76.22       7.98        
C           145.54      76.45       7.29        
C           145.41      77.08       6.14        
C           146.11      81.58       -0.71       
C           147.26      82.12       -1.37       
C           148.56      81.95       -0.74       
C           148.76      81.17       0.42        
C           149.75      79.17       6.19        
C           149.81      76.93       5.08        
C           144.19      81.19       1.77        
C           144.55      79.03       0.39        
H           144.78      78.69       3.79        
H           149.65      79.65       3.08        
H           145.17      81.81       -1.14       
H           149.77      81.0        0.84        
H           148.94      76.44       7.93        
H           144.5       77.31       5.6         
H           150.65      79.49       5.72        
H           150.18      78.66       7.04        
H           149.29288   80.08424    6.56855     
H           149.16      76.1        4.7         
H           150.27      76.61       6.02        
H           150.47229   77.16501    4.24679     
H           144.02      79.44       -0.43       
H           145.37      78.54       -0.15       
H           143.83595   78.44767    0.97233     
H           143.56      80.76       2.58        
H           143.55      81.46       0.91        
H           144.58951   82.11301    2.19018     
H           147.32      75.2        9.87        
H           146.41      83.19       -3.08       
S           144.17      75.73       8.19        
C           146.53      75.5        9.21        
C           145.22      75.21       9.51        
C           149.9       85.42       -6.55       
C           148.56      85.54       -6.08       
C           150.68      84.58       -5.78       
N           147.54      86.24       -6.52       
N           146.91      85.27       -4.63       
O           146.55      86.19       -5.59       
H           151.04      83.38       -4.07       
H           151.72      84.46       -5.99       
C           150.22      83.94       -4.54       
C           148.14      84.89       -4.86       
C           148.98      84.05       -4.0        
C           157.88      91.54       -19.65      
C           158.52      91.6        -18.44      
S           156.24      91.01       -19.5       
C           155.47      90.1        -13.3       
C           154.72      90.19       -14.5       
C           153.36      89.79       -14.54      
C           152.82      89.32       -13.41      
C           153.6       89.14       -12.21      
C           154.92      89.59       -12.13      
C           151.37      89.06       -13.12      
C           151.42      88.4        -11.7       
C           152.73      88.5        -11.17      
C           157.0       90.49       -13.57      
C           156.96      90.78       -15.04      
C           155.65      90.65       -15.56      
C           150.41      87.66       -10.98      
C           150.72      87.17       -9.69       
C           152.01      87.42       -9.19       
C           153.05      88.09       -9.85       
C           157.89      91.24       -15.95      
C           157.61      91.2        -17.34      
C           156.29      90.95       -17.78      
C           155.25      90.73       -16.89      
C           150.92      88.03       -14.21      
C           150.41      90.31       -13.21      
C           157.96      89.27       -13.29      
C           157.38      91.75       -12.65      
H           155.49      89.54       -11.15      
H           152.85      90.15       -15.44      
H           158.89      91.55       -15.63      
H           154.25      90.45       -17.24      
H           149.44      87.44       -11.49      
H           154.07      88.18       -9.48       
H           149.83      88.1        -14.15      
H           151.27      88.32       -15.16      
H           151.32215   87.03848    -14.00199   
H           150.28      90.62       -14.21      
H           149.43      89.92       -12.93      
H           150.63172   91.19687    -12.61637   
H           157.91      91.55       -11.72      
H           158.02      92.34       -13.33      
H           156.46455   92.29783    -12.42654   
H           158.13      89.16       -12.22      
H           158.88      89.58       -13.83      
H           157.67534   88.30216    -13.70275   
H           148.84      86.08       -9.18       
H           159.48      92.0        -18.2       
S           152.03      86.6        -7.67       
C           149.8       86.4        -8.87       
C           150.42      86.02       -7.73       
C           159.33      93.05       -23.62      
C           159.9       93.55       -22.39      
C           158.28      92.21       -23.44      
N           160.85      94.39       -22.15      
N           160.18      93.6        -20.17      
O           160.97      94.45       -20.83      
H           157.15      90.95       -22.18      
H           157.67      91.8        -24.26      
C           157.83      91.75       -22.15      
C           159.4       93.03       -21.08      
C           158.33      92.08       -20.93      
H           21.96       6.18        37.72       
H           159.74      93.2        -24.65      
