612

C           115.52      7.15        43.62       
C           115.24      5.83        43.48       
S           116.52      7.64        44.98       
C           117.34      1.98        47.78       
C           117.77      3.35        47.89       
C           118.3       3.83        49.09       
C           118.51      2.94        50.12       
C           118.14      1.58        50.0        
C           117.53      1.14        48.86       
C           119.11      3.24        51.53       
C           118.95      1.84        52.19       
C           118.43      0.92        51.29       
C           116.65      1.77        46.47       
C           116.6       3.19        45.88       
C           117.32      4.09        46.72       
C           119.27      1.47        53.44       
C           119.11      0.11        53.8        
C           118.54      -0.77       52.91       
C           118.24      -0.41       51.63       
C           115.87      3.72        44.82       
C           115.9       5.12        44.55       
C           116.67      5.97        45.44       
C           117.43      5.47        46.5        
C           118.23      4.3         52.27       
C           120.64      3.53        51.53       
C           115.26      1.15        46.74       
C           117.4       0.87        45.49       
H           117.25      0.08        48.76       
H           118.57      4.84        49.28       
H           115.27      3.07        44.22       
H           118.05      6.03        47.13       
H           119.81      2.17        54.06       
H           117.89      -1.12       50.87       
H           118.28      5.29        51.77       
H           118.69      4.35        53.26       
H           117.19596   3.96014     52.32785    
H           121.2       2.68        51.12       
H           120.85      3.79        52.58       
H           120.89405   4.38388     50.90194    
H           117.0       -0.13       45.17       
H           117.53      1.5         44.61       
H           118.38491   0.60456     45.87418    
H           115.33      0.18        47.33       
H           114.71      0.85        45.86       
H           114.6211    1.85989     47.26532    
H           120.09      -0.13       55.74       
H           114.63      5.36        42.72       
S           118.49      -2.36       53.47       
C           119.53      -0.62       54.95       
C           119.36      -1.93       54.93       
C           114.57      10.42       40.62       
C           114.6       9.01        40.25       
C           114.81      10.65       41.92       
N           114.35      8.46        39.07       
N           114.75      6.79        40.52       
O           114.5       7.14        39.15       
H           115.46      9.89        43.85       
H           114.79      11.65       42.35       
C           115.24      9.56        42.86       
C           114.82      7.91        41.2        
C           115.25      8.19        42.62       
C           118.67      22.52       30.71       
C           118.79      22.59       32.08       
S           117.56      21.22       30.27       
C           115.91      18.76       35.78       
C           115.71      18.52       34.44       
C           114.96      17.47       33.98       
C           114.53      16.45       34.89       
C           114.74      16.68       36.29       
C           115.5       17.84       36.74       
C           113.99      15.04       34.64       
C           113.92      14.56       36.07       
C           114.29      15.52       37.03       
C           117.0       19.81       35.98       
C           117.28      20.26       34.58       
C           116.52      19.54       33.68       
C           113.69      13.2        36.46       
C           113.89      12.87       37.87       
C           114.31      13.91       38.74       
C           114.58      15.18       38.32       
C           118.07      21.33       34.2        
C           118.07      21.61       32.8        
C           117.38      20.74       31.9        
C           116.6       19.68       32.36       
C           114.98      14.07       33.87       
C           112.61      15.02       33.99       
C           118.23      19.22       36.72       
C           116.51      21.05       36.66       
H           115.74      18.03       37.8        
H           114.84      17.44       32.9        
H           118.58      21.93       34.96       
H           115.98      19.11       31.67       
H           113.44      12.4        35.77       
H           114.83      15.98       39.0        
H           115.3       14.48       32.94       
H           114.63      12.99       33.75       
H           115.90326   13.99477    34.44448    
H           111.84      15.5        34.62       
H           112.37      14.01       33.9        
H           112.67308   15.47556    33.00178    
H           117.37      21.63       36.96       
H           115.93      21.5        35.82       
H           115.88501   20.92069    37.54361    
H           119.08      19.91       36.73       
H           117.89      19.01       37.72       
H           118.57555   18.28413    36.28086    
H           113.39      10.74       38.0        
H           119.43      23.34       32.53       
S           114.78      13.16       40.25       
C           113.66      11.59       38.52       
C           114.18      11.57       39.79       
C           120.69      24.95       27.56       
C           120.61      25.4        28.9        
C           120.1       23.76       27.39       
N           121.04      26.52       29.54       
N           120.0       25.22       31.11       
O           120.74      26.33       30.85       
H           118.85      22.17       28.04       
H           120.14      23.39       26.43       
C           119.32      23.07       28.34       
C           119.94      24.59       29.93       
C           119.27      23.39       29.68       
C           128.0       31.33       14.26       
C           126.73      30.9        14.19       
S           128.82      31.19       15.83       
C           124.0       28.69       19.18       
C           125.27      29.38       19.33       
C           125.85      29.56       20.58       
C           125.16      29.02       21.71       
C           123.9       28.46       21.52       
C           123.26      28.25       20.28       
C           125.27      29.3        23.22       
C           124.1       28.46       23.84       
C           123.37      27.97       22.78       
C           123.44      28.9        17.76       
C           124.66      29.64       17.18       
C           125.71      29.82       18.09       
C           123.86      28.13       25.16       
C           122.78      27.16       25.46       
C           122.07      26.74       24.4        
C           122.3       27.13       23.07       
C           124.99      29.93       15.85       
C           126.28      30.37       15.47       
C           127.31      30.48       16.41       
C           127.04      30.2        17.75       
C           125.06      30.83       23.46       
C           126.63      28.69       23.76       
C           122.17      29.84       17.95       
C           123.17      27.57       17.04       
H           122.27      27.78       20.18       
H           126.81      30.11       20.72       
H           124.19      29.89       15.15       
H           127.82      30.11       18.55       
H           124.56      28.4        25.93       
H           121.78      26.62       22.3        
H           125.97      31.42       23.37       
H           124.43      31.24       22.58       
H           124.53571   31.16554    24.35478    
H           127.45      29.24       23.28       
H           126.62      28.89       24.85       
H           126.69358   27.63032    23.51274    
H           122.8       27.88       16.07       
H           124.06      26.99       16.79       
H           122.40657   26.935      17.4895     
H           121.29      29.38       18.4        
H           122.32      30.59       18.67       
H           121.87377   30.41868    17.07509    
H           122.77      26.77       27.63       
H           126.14      30.85       13.24       
S           120.89      25.55       24.86       
C           122.35      26.53       26.66       
C           121.4       25.67       26.52       
C           130.51      32.83       10.9        
C           129.24      32.29       10.74       
C           130.91      32.83       12.23       
N           128.66      31.98       9.61        
N           127.31      31.37       11.3        
O           127.49      31.41       9.98        
H           130.34      32.69       14.39       
H           131.89      33.25       12.44       
C           130.06      32.46       13.36       
C           128.4       31.84       11.86       
C           128.81      31.9        13.2        
C           138.8       42.77       0.43        
C           139.22      42.54       1.77        
S           137.66      41.51       -0.03       
C           136.34      38.63       5.49        
C           136.03      38.59       4.14        
C           134.93      37.78       3.7         
C           134.29      36.94       4.63        
C           134.62      37.05       6.01        
C           135.66      37.86       6.39        
C           133.23      35.87       4.3         
C           132.94      35.39       5.76        
C           133.76      36.14       6.74        
C           137.4       39.68       5.73        
C           137.73      40.16       4.31        
C           136.92      39.46       3.37        
C           131.96      34.44       6.26        
C           131.96      34.21       7.66        
C           132.82      34.9        8.55        
C           133.76      35.83       8.09        
C           138.56      41.15       3.77        
C           138.54      41.48       2.41        
C           137.64      40.81       1.55        
C           136.8       39.85       2.05        
C           133.98      34.82       3.43        
C           131.97      36.55       3.6         
C           138.61      39.05       6.51        
C           136.8       40.96       6.55        
H           135.82      38.03       7.44        
H           134.64      37.73       2.67        
H           139.23      41.71       4.42        
H           136.11      39.25       1.5         
H           131.32      33.86       5.62        
H           134.42      36.25       8.85        
H           134.12      35.15       2.38        
H           135.04      34.81       3.79        
H           133.57155   33.81296    3.51451     
H           132.17      37.15       2.71        
H           131.24      35.92       3.29        
H           131.36545   37.21282    4.21911     
H           137.11      40.84       7.58        
H           137.22      41.86       6.19        
H           135.71467   41.05406    6.58618     
H           138.24      38.62       7.43        
H           139.39      39.71       6.75        
H           139.03141   38.22123    5.9411      
H           130.26      32.89       7.94        
H           140.01      43.1        2.33        
S           132.68      34.43       10.25       
C           131.08      33.45       8.45        
C           131.29      33.43       9.81        
C           140.26      45.33       -2.75       
C           140.53      45.57       -1.35       
C           139.38      44.35       -2.91       
N           141.23      46.56       -0.84       
N           140.63      45.25       0.83        
O           141.3       46.4        0.55        
H           138.06      42.85       -2.12       
H           138.88      44.21       -3.86       
C           138.83      43.59       -1.86       
C           140.14      44.74       -0.28       
C           139.17      43.76       -0.55       
C           145.08      53.59       -16.39      
C           145.97      52.93       -15.61      
S           143.47      53.69       -15.57      
C           144.43      50.2        -10.3       
C           143.4       50.85       -11.0       
C           142.13      50.91       -10.46      
C           141.84      50.17       -9.34       
C           142.8       49.42       -8.66       
C           144.14      49.48       -9.1        
C           140.43      49.98       -8.75       
C           140.72      48.95       -7.62       
C           142.13      48.73       -7.57       
C           145.79      50.4        -11.03      
C           145.37      51.21       -12.29      
C           143.97      51.45       -12.18      
C           139.86      48.24       -6.8        
C           140.45      47.39       -5.85       
C           141.84      47.28       -5.73       
C           142.69      47.88       -6.7        
C           146.14      51.72       -13.31      
C           145.47      52.45       -14.34      
C           144.08      52.71       -14.19      
C           143.36      52.28       -13.1       
C           139.46      49.43       -9.81       
C           139.92      51.37       -8.22       
C           146.45      49.05       -11.42      
C           146.73      51.3        -10.2       
H           144.92      49.05       -8.57       
H           141.35      51.45       -10.97      
H           147.17      51.5        -13.44      
H           142.33      52.53       -12.98      
H           138.77      48.22       -6.9        
H           143.75      47.7        -6.78       
H           139.04      50.24       -10.5       
H           138.55      49.1        -9.34       
H           139.85502   48.58251    -10.3702    
H           139.59      51.9        -9.07       
H           139.13      51.1        -7.55       
H           140.71056   51.89704    -7.68583    
H           147.6       50.8        -9.63       
H           147.18      52.02       -10.87      
H           146.18023   51.87833    -9.45745    
H           147.46      49.14       -11.68      
H           146.51      48.39       -10.55      
H           145.8485    48.52097    -12.1592    
H           138.66      46.73       -4.77       
H           146.99      52.81       -15.85      
S           142.31      46.32       -4.29       
C           139.76      46.71       -4.83       
C           140.63      46.21       -3.83       
C           145.72      55.36       -20.38      
C           146.32      54.09       -19.99      
C           144.8       55.84       -19.4       
N           147.28      53.41       -20.6       
N           146.71      52.32       -18.62      
O           147.5       52.31       -19.77      
H           143.8       55.64       -17.49      
H           144.33      56.81       -19.45      
C           144.58      55.21       -18.13      
C           146.07      53.47       -18.69      
C           145.24      54.08       -17.72      
C           152.27      65.82       -31.39      
C           151.33      66.26       -30.48      
S           152.56      64.12       -31.31      
C           148.6       62.24       -26.75      
C           149.54      61.65       -27.53      
C           149.84      60.35       -27.51      
C           149.11      59.55       -26.64      
C           148.2       60.14       -25.76      
C           147.97      61.52       -25.74      
C           149.31      58.03       -26.46      
C           148.27      57.83       -25.31      
C           147.71      59.07       -24.86      
C           148.38      63.76       -27.14      
C           149.6       64.03       -27.91      
C           150.21      62.74       -28.29      
C           148.05      56.64       -24.64      
C           147.22      56.69       -23.53      
C           146.65      57.93       -23.1       
C           146.86      59.15       -23.77      
C           149.97      65.22       -28.54      
C           150.92      65.19       -29.58      
C           151.57      63.92       -29.89      
C           151.23      62.73       -29.28      
C           150.76      57.59       -26.14      
C           148.77      57.35       -27.76      
C           148.06      64.69       -25.91      
C           147.25      63.94       -28.16      
H           147.16      61.89       -25.19      
H           150.62      59.93       -28.09      
H           149.29      66.12       -28.53      
H           151.68      61.82       -29.58      
H           148.39      55.67       -24.99      
H           146.37      60.09       -23.45      
H           150.98      56.63       -26.62      
H           151.5       58.18       -26.75      
H           151.03278   57.60436    -25.08478   
H           149.5       57.59       -28.49      
H           148.81      56.25       -27.58      
H           147.79814   57.73738    -28.06583   
H           147.08      65.01       -28.15      
H           147.67      63.73       -29.11      
H           146.36157   63.33361    -27.98372   
H           147.08      65.11       -26.04      
H           148.03      64.11       -25.0       
H           148.75695   65.50686    -25.72265   
H           147.26      54.63       -22.75      
H           150.84      67.23       -30.55      
S           145.59      57.79       -21.73      
C           146.84      55.61       -22.6       
C           146.04      56.11       -21.61      
C           153.25      67.92       -35.15      
C           154.17      67.04       -34.5       
C           152.11      68.03       -34.43      
N           155.29      66.57       -35.06      
N           155.06      65.74       -32.95      
O           155.78      65.7        -34.07      
H           150.75      67.42       -32.92      
H           151.29      68.56       -34.77      
C           151.78      67.28       -33.24      
C           153.91      66.42       -33.25      
C           152.69      66.53       -32.59      
C           145.28      69.32       -49.11      
C           145.77      68.16       -48.52      
S           145.75      70.63       -48.1       
C           149.72      68.03       -43.97      
C           149.37      69.38       -44.35      
C           149.8       70.47       -43.65      
C           150.74      70.28       -42.63      
C           151.12      68.99       -42.33      
C           150.54      67.85       -42.91      
C           151.08      71.25       -41.45      
C           151.97      70.31       -40.6       
C           151.93      68.96       -41.09      
C           148.91      66.92       -44.67      
C           148.11      67.83       -45.61      
C           148.34      69.19       -45.42      
C           152.58      70.58       -39.39      
C           152.98      69.54       -38.54      
C           152.96      68.23       -39.06      
C           152.43      67.9        -40.28      
C           147.25      67.45       -46.57      
C           146.66      68.43       -47.37      
C           146.82      69.75       -47.08      
C           147.62      70.17       -46.05      
C           149.74      71.65       -40.77      
C           151.83      72.46       -41.98      
C           147.98      66.23       -43.63      
C           149.85      65.91       -45.35      
H           150.78      66.82       -42.62      
H           149.35      71.47       -43.93      
H           146.97      66.4        -46.71      
H           147.74      71.21       -45.87      
H           152.59      71.62       -38.99      
H           152.28      66.8        -40.53      
H           149.67      72.4        -40.03      
H           149.09      72.17       -41.44      
H           149.15335   70.78062    -40.47314   
H           151.11      73.28       -42.23      
H           152.47      72.77       -41.13      
H           152.43451   72.18586    -42.84459   
H           149.17      65.2        -45.82      
H           150.47      66.34       -46.1       
H           150.42784   65.28936    -44.66516   
H           148.53      66.05       -42.75      
H           147.57      65.33       -44.07      
H           147.17697   66.89337    -43.30879   
H           153.19      70.45       -36.63      
H           145.52      67.15       -48.81      
S           153.29      67.02       -37.79      
C           153.19      69.52       -37.13      
C           153.31      68.29       -36.56      
C           143.0       69.99       -52.72      
C           143.43      68.69       -52.4       
C           143.46      70.99       -51.9       
N           143.35      67.53       -53.09      
N           144.51      67.2        -51.15      
O           144.03      66.69       -52.29      
H           144.41      71.6        -50.09      
H           143.21      72.01       -52.08      
C           144.13      70.75       -50.67      
C           144.25      68.49       -51.24      
C           144.54      69.52       -50.34      
C           137.04      75.53       -66.84      
C           137.41      76.41       -65.81      
S           136.55      74.04       -66.18      
C           138.61      74.2        -60.27      
C           137.97      73.29       -61.07      
C           137.89      71.96       -60.84      
C           138.43      71.56       -59.58      
C           139.04      72.48       -58.72      
C           139.2       73.79       -59.08      
C           138.64      70.08       -59.1       
C           139.28      70.39       -57.79      
C           139.57      71.77       -57.58      
C           138.46      75.67       -60.76      
C           137.86      75.41       -62.13      
C           137.57      74.03       -62.26      
C           139.94      69.53       -56.88      
C           140.73      70.06       -55.83      
C           140.94      71.48       -55.7       
C           140.35      72.3        -56.55      
C           137.74      76.32       -63.17      
C           137.46      75.81       -64.5       
C           137.13      74.45       -64.59      
C           137.04      73.59       -63.49      
C           139.58      69.25       -60.04      
C           137.23      69.51       -58.85      
C           139.9       76.32       -60.81      
C           137.45      76.45       -59.92      
H           139.8       74.53       -58.51      
H           137.47      71.29       -61.57      
H           137.91      77.39       -62.99      
H           136.64      72.59       -63.59      
H           139.71      68.43       -56.92      
H           140.63      73.42       -56.49      
H           139.42      68.24       -59.89      
H           139.2       69.29       -61.02      
H           140.61333   69.5968     -60.04708   
H           136.78      69.43       -59.79      
H           137.46      68.54       -58.39      
H           136.63231   70.07253    -58.13277   
H           137.29      77.34       -60.48      
H           136.51      75.89       -59.91      
H           137.79929   76.73642    -58.928     
H           140.1       76.64       -59.8       
H           139.88      77.22       -61.38      
H           140.68689   75.65255    -61.16129   
H           141.54      68.37       -54.56      
H           137.61      77.52       -65.96      
S           141.99      71.97       -54.37      
C           141.48      69.47       -54.73      
C           142.11      70.33       -53.87      
C           136.56      76.22       -71.25      
C           136.73      77.29       -70.29      
C           136.35      75.05       -70.59      
N           136.77      78.59       -70.55      
N           136.91      78.3        -68.32      
O           136.92      79.18       -69.38      
H           136.59      73.83       -68.86      
H           136.14      74.19       -71.21      
C           136.51      74.83       -69.14      
C           136.77      77.09       -68.84      
C           136.83      75.81       -68.22      
C           139.22      78.88       -87.38      
C           139.22      79.82       -86.35      
S           138.76      77.33       -86.69      
C           137.47      78.88       -80.69      
C           137.52      77.67       -81.47      
C           137.2       76.39       -80.94      
C           136.72      76.26       -79.66      
C           136.75      77.48       -78.84      
C           136.99      78.77       -79.35      
C           136.46      75.05       -78.75      
C           136.47      75.68       -77.4       
C           136.58      77.07       -77.46      
C           137.97      80.16       -81.39      
C           138.19      79.46       -82.75      
C           137.93      78.04       -82.8       
C           136.23      75.11       -76.16      
C           136.35      75.86       -74.97      
C           136.56      77.25       -75.1       
C           136.63      77.89       -76.34      
C           138.61      80.07       -83.92      
C           138.78      79.32       -85.07      
C           138.57      77.94       -85.05      
C           138.08      77.25       -83.94      
C           137.58      74.05       -78.92      
C           135.05      74.45       -79.07      
C           139.36      80.59       -80.86      
C           137.0       81.39       -81.48      
H           137.15      79.65       -78.7       
H           137.42      75.45       -81.49      
H           138.9       81.12       -83.99      
H           137.75      76.19       -83.96      
H           136.04      74.04       -76.09      
H           136.79      78.95       -76.47      
H           137.81      74.03       -79.99      
H           137.18      73.07       -78.63      
H           138.52323   74.3195     -78.44484   
H           134.29      75.23       -79.25      
H           134.67      73.74       -78.38      
H           135.04289   73.8955     -80.00839   
H           137.74      82.23       -81.54      
H           136.44      81.26       -82.43      
H           136.21735   81.47696    -80.72634   
H           139.12      80.81       -79.86      
H           139.8       81.52       -81.31      
H           140.1285    79.8215     -80.77692   
H           136.33      74.34       -73.37      
H           139.39      80.9        -86.59      
S           136.73      77.93       -73.48      
C           136.41      75.41       -73.63      
C           136.44      76.37       -72.69      
C           140.39      78.89       -91.53      
C           140.32      80.13       -90.88      
C           140.1       77.79       -90.77      
N           140.57      81.35       -91.24      
N           139.8       81.38       -89.03      
O           140.23      82.12       -90.13      
H           139.6       76.83       -88.96      
H           140.29      76.83       -91.2       
C           139.58      77.8        -89.46      
C           139.82      80.15       -89.53      
C           139.56      78.98       -88.77      
C           152.1       74.52       -102.18     
C           152.12      75.7        -101.36     
S           150.61      73.71       -102.01     
C           147.34      77.56       -98.11      
C           147.17      76.34       -98.79      
C           146.03      75.52       -98.52      
C           145.07      75.95       -97.59      
C           145.17      77.27       -97.09      
C           146.33      78.02       -97.32      
C           143.96      75.18       -96.93      
C           143.22      76.31       -96.27      
C           144.04      77.47       -96.27      
C           148.81      78.07       -98.26      
C           149.31      77.02       -99.31      
C           148.35      76.01       -99.58      
C           142.05      76.37       -95.62      
C           141.85      77.35       -94.61      
C           142.69      78.45       -94.58      
C           143.79      78.62       -95.43      
C           150.58      77.01       -99.84      
C           150.86      75.97       -100.75     
C           149.95      74.95       -100.99     
C           148.66      74.94       -100.39     
C           144.72      74.25       -96.01      
C           143.08      74.38       -97.95      
C           149.67      77.94       -97.0       
C           148.94      79.44       -98.92      
H           146.42      78.94       -96.81      
H           146.03      74.54       -98.98      
H           151.36      77.83       -99.61      
H           147.92      74.2        -100.54     
H           141.42      75.57       -95.56      
H           144.48      79.54       -95.43      
H           144.87      73.28       -96.48      
H           145.68      74.68       -95.77      
H           144.22136   74.1289     -95.04834   
H           143.62      73.65       -98.6       
H           142.44      73.76       -97.38      
H           142.45171   74.96446    -98.62213   
H           149.97      79.59       -99.28      
H           148.36      79.48       -99.84      
H           148.62936   80.26355    -98.27706   
H           149.16      78.54       -96.29      
H           150.7       78.37       -97.11      
H           149.73485   76.93842    -96.57487   
H           140.22      76.67       -93.29      
H           152.89      76.46       -101.39     
S           142.29      79.61       -93.39      
C           140.9       77.45       -93.53      
C           141.01      78.62       -92.82      
C           155.14      72.88       -104.89     
C           155.43      73.81       -103.88     
C           153.81      72.47       -104.84     
N           156.66      74.36       -103.63     
N           155.14      75.23       -102.24     
O           156.43      75.23       -102.69     
H           151.8       72.77       -104.11     
H           153.43      71.86       -105.59     
C           152.86      73.04       -103.92     
C           154.51      74.34       -102.99     
C           153.15      73.95       -102.99     
H           119.32      -2.54       55.83       
H           155.9       72.64       -105.68     
