612

C           105.66      10.27       1.28        
C           105.01      9.56        2.3         
S           105.0       11.88       1.21        
C           101.55      12.24       6.52        
C           102.02      13.08       5.51        
C           101.54      14.36       5.39        
C           100.67      14.77       6.4         
C           100.15      13.88       7.38        
C           100.57      12.61       7.47        
C           100.3       16.18       6.81        
C           99.25       15.93       7.85        
C           99.09       14.56       8.12        
C           102.37      10.89       6.52        
C           103.11      11.04       5.17        
C           102.93      12.37       4.62        
C           98.28       16.85       8.32        
C           97.2        16.32       9.12        
C           97.19       14.94       9.42        
C           98.05       14.1        8.94        
C           103.9       10.09       4.5         
C           104.42      10.45       3.26        
C           104.24      11.73       2.76        
C           103.49      12.77       3.39        
C           99.66       16.96       5.6         
C           101.43      17.02       7.57        
C           101.35      9.78        6.45        
C           103.35      10.71       7.74        
H           100.05      11.9        8.15        
H           101.9       15.06       4.69        
H           103.97      9.11        4.84        
H           103.28      13.74       2.91        
H           98.39       17.94       8.28        
H           97.96       13.0        9.15        
H           100.47      17.18       4.89        
H           99.32       17.87       6.06        
H           98.87686    16.38179    5.10962     
H           101.44      16.7        8.59        
H           101.13      18.09       7.5         
H           102.4142    17.04065    7.10199     
H           103.13      9.89        8.35        
H           104.39      10.77       7.48        
H           103.29846   11.60092    8.36586     
H           100.57      9.87        7.2         
H           101.86      8.77        6.55        
H           100.74713   9.80128     5.54215     
H           96.0        18.01       9.88        
H           105.23      8.57        2.51        
S           95.79       14.44       10.32       
C           96.12       16.94       9.86        
C           95.3        16.09       10.49       
C           108.21      8.38        -1.7        
C           108.55      9.53        -0.97       
C           106.97      7.88        -1.42       
N           109.65      10.25       -0.9        
N           108.22      11.21       0.48        
O           109.5       11.24       0.02        
H           105.14      8.09        -0.17       
H           106.68      6.97        -1.94       
C           106.1       8.56        -0.48       
C           107.71      10.14       -0.04       
C           106.44      9.69        0.23        
C           118.12      1.1         -12.7       
C           116.81      0.87        -12.59      
S           118.79      1.8         -11.2       
C           113.4       2.33        -7.65       
C           114.77      2.74        -7.64       
C           115.17      3.56        -6.57       
C           114.27      4.11        -5.72       
C           112.93      3.78        -5.83       
C           112.51      2.86        -6.78       
C           114.48      5.36        -4.81       
C           113.04      5.64        -4.45       
C           112.15      4.7         -4.98       
C           113.18      1.45        -8.87       
C           114.56      1.54        -9.55       
C           115.5       2.21        -8.77       
C           112.56      6.68        -3.7        
C           111.19      6.74        -3.41       
C           110.31      5.84        -4.0        
C           110.78      4.78        -4.8        
C           114.96      0.97        -10.77      
C           116.26      1.22        -11.29      
C           117.22      1.78        -10.43      
C           116.82      2.27        -9.18       
C           115.03      6.6         -5.57       
C           115.26      4.98        -3.51       
C           112.13      2.2         -9.8        
C           112.76      0.01        -8.64       
H           111.46      2.6         -6.82       
H           116.18      3.84        -6.42       
H           114.16      0.56        -11.4       
H           117.52      2.7         -8.45       
H           113.17      7.54        -3.36       
H           110.07      4.14        -5.3        
H           116.01      6.35        -5.89       
H           115.09      7.45        -4.87       
H           114.47695   6.80376     -6.4869     
H           114.6       4.38        -2.81       
H           115.46      5.88        -2.91       
H           116.18626   4.42865     -3.67173    
H           111.67      -0.13       -8.63       
H           113.24      -0.6        -9.44       
H           113.08124   -0.46455    -7.7128     
H           111.22      2.35        -9.22       
H           112.55      3.25        -9.91       
H           111.86735   1.76225     -10.76306   
H           111.11      8.58        -2.19       
H           116.2       0.38        -13.39      
S           108.7       6.21        -3.42       
C           110.55      7.79        -2.65       
C           109.2       7.66        -2.5        
C           120.93      0.93        -16.16      
C           119.57      0.74        -16.34      
C           121.27      1.07        -14.83      
N           118.85      0.55        -17.43      
N           117.44      0.56        -15.71      
O           117.53      0.5         -17.07      
H           120.78      1.24        -12.78      
H           122.26      1.1         -14.53      
C           120.32      1.07        -13.76      
C           118.62      0.65        -15.21      
C           118.98      0.91        -13.85      
C           129.52      10.18       -26.3       
C           129.81      10.03       -25.01      
S           128.71      8.85        -26.98      
C           127.6       5.62        -21.62      
C           127.17      5.53        -22.9       
C           126.17      4.68        -23.36      
C           125.43      3.96        -22.41      
C           125.89      4.03        -21.09      
C           126.95      4.79        -20.69      
C           124.42      2.82        -22.68      
C           124.08      2.51        -21.22      
C           124.91      3.25        -20.33      
C           128.69      6.73        -21.29      
C           128.85      7.22        -22.72      
C           128.02      6.5         -23.64      
C           123.0       1.78        -20.75      
C           122.84      1.63        -19.34      
C           123.72      2.3         -18.47      
C           124.79      3.06        -18.92      
C           129.58      8.34        -23.14      
C           129.4       8.77        -24.49      
C           128.66      8.0         -25.4       
C           127.9       6.87        -24.98      
C           125.07      1.69        -23.47      
C           123.16      3.29        -23.38      
C           129.93      5.92        -20.76      
C           128.28      7.81        -20.33      
H           127.13      4.85        -19.65      
H           125.75      4.86        -24.33      
H           130.11      8.97        -22.43      
H           127.19      6.37        -25.66      
H           122.37      1.29        -21.42      
H           125.35      3.57        -18.16      
H           125.15      1.84        -24.58      
H           126.14      1.68        -23.33      
H           124.72358   0.72445     -23.10147   
H           123.35      3.33        -24.46      
H           122.31      2.64        -23.17      
H           122.88009   4.28044     -23.02114   
H           129.06      8.5         -20.17      
H           127.61      8.44        -20.84      
H           127.73546   7.45678     -19.45432   
H           130.35      6.36        -19.86      
H           129.48      4.91        -20.44      
H           130.71564   5.7879      -21.50392   
H           121.06      0.4         -18.99      
H           130.23      10.82       -24.42      
S           123.25      2.23        -16.8       
C           121.84      0.98        -18.56      
C           121.93      1.17        -17.21      
C           129.58      13.83       -28.95      
C           129.6       13.91       -27.51      
C           129.66      12.51       -29.38      
N           129.68      15.1        -26.75      
N           129.59      13.25       -25.37      
O           129.73      14.63       -25.51      
H           129.54      10.42       -28.95      
H           129.68      12.33       -30.44      
C           129.55      11.42       -28.47      
C           129.56      12.76       -26.58      
C           129.54      11.47       -27.1       
C           130.49      26.26       -40.01      
C           130.6       26.61       -38.72      
S           130.34      24.53       -40.18      
C           129.56      22.42       -34.28      
C           129.77      21.99       -35.6       
C           129.81      20.59       -35.96      
C           129.61      19.68       -34.95      
C           129.42      20.13       -33.62      
C           129.45      21.49       -33.26      
C           129.76      18.2        -35.11      
C           129.42      17.79       -33.67      
C           129.3       18.9        -32.82      
C           129.81      23.89       -34.23      
C           130.02      24.28       -35.76      
C           129.89      23.13       -36.48      
C           129.5       16.49       -33.16      
C           129.4       16.26       -31.84      
C           129.28      17.34       -30.97      
C           129.23      18.66       -31.39      
C           130.3       25.5        -36.39      
C           130.42      25.54       -37.78      
C           130.17      24.32       -38.46      
C           130.06      23.09       -37.85      
C           131.18      17.74       -35.58      
C           128.7       17.59       -36.12      
C           131.12      24.15       -33.39      
C           128.63      24.73       -33.7       
H           129.3       21.87       -32.29      
H           129.83      20.17       -37.01      
H           130.28      26.43       -35.92      
H           130.06      22.23       -38.44      
H           129.63      15.71       -33.79      
H           129.33      19.46       -30.66      
H           131.3       16.65       -35.47      
H           131.3       17.91       -36.61      
H           132.00712   18.249      -35.08514   
H           129.18      17.68       -37.06      
H           128.51      16.6        -35.89      
H           127.76778   18.14933    -36.19888   
H           129.02      25.27       -32.82      
H           128.5       25.51       -34.47      
H           127.69115   24.18862    -33.5835    
H           130.96      23.91       -32.38      
H           131.32      25.22       -33.54      
H           132.00665   23.62355    -33.74327   
H           129.57      14.01       -31.72      
H           130.79      27.65       -38.38      
S           129.39      16.68       -29.4       
C           129.49      14.93       -31.22      
C           129.52      14.98       -29.87      
C           131.6       28.41       -43.76      
C           131.82      28.98       -42.47      
C           130.7       27.29       -43.67      
N           132.59      30.02       -42.11      
N           132.09      28.94       -40.27      
O           132.78      29.96       -40.81      
H           129.75      25.74       -42.56      
H           130.33      26.74       -44.53      
C           130.34      26.68       -42.45      
C           131.47      28.29       -41.27      
C           130.77      27.06       -41.21      
C           140.93      26.89       -56.71      
C           139.65      26.5        -56.6       
S           141.05      28.44       -55.85      
C           135.65      28.35       -52.47      
C           136.83      29.12       -52.5       
C           137.02      30.02       -51.46      
C           136.08      30.07       -50.42      
C           134.87      29.36       -50.48      
C           134.58      28.42       -51.5       
C           136.26      30.73       -49.07      
C           134.87      30.5        -48.43      
C           134.19      29.57       -49.23      
C           135.62      27.33       -53.66      
C           136.99      27.55       -54.22      
C           137.71      28.59       -53.58      
C           134.51      30.68       -47.12      
C           133.52      29.91       -46.58      
C           132.8       28.99       -47.36      
C           133.01      28.93       -48.73      
C           137.51      26.8        -55.22      
C           138.86      27.05       -55.57      
C           139.54      28.16       -55.0       
C           138.98      28.89       -53.97      
C           136.57      32.2        -49.34      
C           137.44      29.98       -48.4       
C           134.5       27.69       -54.67      
C           135.47      25.88       -53.21      
H           133.74      27.69       -51.5       
H           137.95      30.41       -51.39      
H           136.98      26.03       -55.71      
H           139.58      29.65       -53.53      
H           135.12      31.33       -46.4       
H           132.45      28.3        -49.41      
H           137.5       32.4        -49.89      
H           136.78      32.6        -48.32      
H           135.81365   32.82156    -49.81927   
H           138.4       30.29       -48.68      
H           137.41      30.32       -47.35      
H           137.41867   28.92069    -48.65594   
H           134.4       25.73       -52.92      
H           135.67      25.16       -54.09      
H           136.09363   25.68157    -52.33833   
H           134.22      26.76       -55.17      
H           133.64      28.04       -54.16      
H           134.67231   28.45105    -55.43105   
H           133.58      30.43       -44.42      
H           139.37      25.68       -57.21      
S           131.56      28.19       -46.41      
C           133.1       29.86       -45.21      
C           132.17      28.94       -44.98      
C           143.65      26.44       -60.14      
C           142.52      25.53       -59.99      
C           143.81      27.29       -59.09      
N           142.16      24.52       -60.81      
N           140.62      24.75       -59.19      
O           140.97      24.1        -60.32      
H           143.16      28.04       -57.19      
H           144.68      27.93       -58.98      
C           142.88      27.36       -57.99      
C           141.58      25.67       -58.94      
C           141.76      26.65       -57.85      
C           152.46      23.15       -73.44      
C           152.06      22.09       -72.7       
S           152.48      24.63       -72.48      
C           149.57      22.97       -67.15      
C           150.24      24.08       -67.78      
C           150.26      25.38       -67.29      
C           149.43      25.62       -66.16      
C           148.67      24.56       -65.63      
C           148.81      23.25       -66.09      
C           148.84      26.94       -65.71      
C           147.89      26.52       -64.57      
C           147.81      25.08       -64.55      
C           149.66      21.76       -68.08      
C           150.47      22.27       -69.29      
C           150.76      23.63       -69.0       
C           147.15      27.28       -63.74      
C           146.24      26.67       -62.83      
C           146.24      25.26       -62.77      
C           146.99      24.47       -63.63      
C           150.89      21.7        -70.45      
C           151.59      22.51       -71.38      
C           151.94      23.78       -71.04      
C           151.52      24.39       -69.88      
C           148.18      27.5        -66.94      
C           149.93      27.87       -65.1       
C           148.25      21.32       -68.47      
C           150.46      20.53       -67.47      
H           148.17      22.5        -65.57      
H           150.73      26.22       -67.91      
H           150.77      20.64       -70.63      
H           151.66      25.4        -69.71      
H           147.37      28.35       -63.73      
H           146.98      23.34       -63.62      
H           148.84      27.91       -67.82      
H           147.56      26.67       -67.42      
H           147.39003   28.22649    -66.74956   
H           150.73      28.03       -65.8       
H           149.5       28.82       -64.79      
H           150.30399   27.44468    -64.16869   
H           150.04      19.52       -67.71      
H           151.54      20.49       -67.74      
H           150.50187   20.49511    -66.38136   
H           148.24      20.29       -68.78      
H           147.61      21.32       -67.53      
H           147.71132   21.97209    -69.15753   
H           145.1       28.3        -61.85      
H           151.98      21.05       -73.1       
S           145.27      24.6        -61.46      
C           145.27      27.23       -61.91      
C           144.59      26.22       -61.2       
C           153.83      23.82       -77.57      
C           153.63      22.49       -77.09      
C           153.74      24.79       -76.6       
N           153.61      21.34       -77.74      
N           153.17      20.86       -75.64      
O           153.36      20.33       -76.85      
H           153.18      25.33       -74.68      
H           153.83      25.77       -76.85      
C           153.3       24.49       -75.29      
C           153.26      22.19       -75.72      
C           153.05      23.26       -74.78      
C           149.53      30.49       -92.07      
C           149.47      31.12       -90.84      
S           150.02      28.78       -91.98      
C           150.84      28.25       -85.75      
C           150.75      27.3        -86.79      
C           150.98      25.93       -86.52      
C           151.55      25.57       -85.3       
C           151.93      26.59       -84.33      
C           151.49      27.9        -84.52      
C           151.89      24.19       -84.81      
C           152.75      24.59       -83.54      
C           152.57      25.96       -83.2       
C           150.07      29.58       -86.0       
C           150.09      29.48       -87.56      
C           150.38      28.15       -87.97      
C           153.11      23.68       -82.6       
C           153.54      24.12       -81.33      
C           153.49      25.53       -81.05      
C           153.04      26.47       -82.0       
C           149.75      30.49       -88.4       
C           149.76      30.21       -89.78      
C           150.04      28.82       -90.22      
C           150.37      27.83       -89.33      
C           152.68      23.4        -85.88      
C           150.61      23.46       -84.34      
C           150.81      30.83       -85.49      
C           148.59      29.61       -85.53      
H           151.67      28.54       -83.67      
H           150.67      25.19       -87.28      
H           149.54      31.49       -88.03      
H           150.82      26.96       -89.67      
H           153.12      22.57       -82.74      
H           152.9       27.58       -81.86      
H           152.88      22.44       -85.43      
H           152.03      23.06       -86.67      
H           153.58504   23.86666    -86.26888   
H           150.17      22.83       -85.09      
H           150.9       22.82       -83.45      
H           149.8182    24.16463    -84.08575   
H           148.41      30.33       -84.83      
H           147.85      29.76       -86.34      
H           148.27683   28.67761    -85.06025   
H           150.76      30.8        -84.41      
H           150.22      31.73       -85.77      
H           151.82714   30.94056    -85.8659    
H           153.79      22.32       -80.09      
H           149.24      32.2        -90.73      
S           153.83      25.88       -79.36      
C           153.88      23.38       -80.17      
C           153.95      24.15       -79.01      
C           149.59      32.12       -96.21      
C           149.74      32.94       -95.08      
C           149.37      30.77       -95.9       
N           149.76      34.28       -95.01      
N           149.78      33.41       -92.87      
O           149.87      34.56       -93.64      
H           148.97      29.17       -94.55      
H           149.25      30.03       -96.68      
C           149.33      30.2        -94.6       
C           149.75      32.38       -93.73      
C           149.52      31.03       -93.44      
C           148.32      37.22       -111.94     
C           148.33      35.97       -111.49     
S           148.72      38.28       -110.68     
C           149.72      34.1        -105.9      
C           149.62      35.54       -106.03     
C           149.81      36.37       -104.95     
C           149.95      35.76       -103.68     
C           149.84      34.35       -103.52     
C           149.88      33.48       -104.6      
C           150.39      36.49       -102.39     
C           150.27      35.26       -101.43     
C           150.04      34.04       -102.07     
C           149.5       33.35       -107.22     
C           149.23      34.55       -108.17     
C           149.38      35.83       -107.49     
C           150.43      35.26       -100.14     
C           150.12      34.04       -99.37      
C           149.97      32.86       -100.07     
C           150.04      32.8        -101.39     
C           148.92      34.54       -109.47     
C           148.68      35.76       -110.1      
C           148.95      37.01       -109.55     
C           149.23      36.99       -108.13     
C           149.4       37.59       -102.01     
C           151.87      37.05       -102.48     
C           148.25      32.44       -107.11     
C           150.77      32.58       -107.76     
H           149.94      32.41       -104.47     
H           149.95      37.38       -105.12     
H           148.83      33.67       -109.97     
H           149.42      37.92       -107.53     
H           150.76      36.14       -99.69      
H           149.87      31.87       -101.96     
H           149.87      38.31       -101.28     
H           149.24      38.13       -102.94     
H           148.39362   37.24273    -101.77612  
H           151.92      37.7        -103.35     
H           152.15      37.64       -101.65     
H           152.6441    36.28275    -102.4937   
H           150.44      31.5        -107.75     
H           151.0       32.89       -108.82     
H           151.65041   32.71711    -107.13217  
H           148.31      31.88       -106.12     
H           148.08      31.73       -107.99     
H           147.33581   33.02868    -107.03382  
H           150.25      34.67       -97.32      
H           148.23      35.04       -112.15     
S           149.65      31.55       -98.97      
C           150.04      33.88       -98.01      
C           149.67      32.65       -97.57      
C           147.23      38.99       -115.73     
C           147.27      37.57       -115.57     
C           147.65      39.74       -114.65     
N           146.92      36.69       -116.41     
N           147.6       35.68       -114.45     
O           147.15      35.45       -115.73     
H           148.26      39.79       -112.71     
H           147.65      40.8        -114.75     
C           148.07      39.1        -113.44     
C           147.7       36.97       -114.34     
C           148.07      37.76       -113.23     
C           140.58      47.42       -128.44     
C           141.53      47.97       -127.62     
S           139.85      46.04       -127.66     
C           143.56      45.22       -122.62     
C           142.38      44.63       -123.15     
C           141.94      43.4        -122.74     
C           142.67      42.67       -121.76     
C           143.79      43.3        -121.15     
C           144.25      44.55       -121.58     
C           142.47      41.25       -121.26     
C           143.69      41.09       -120.37     
C           144.4       42.34       -120.21     
C           143.97      46.41       -123.43     
C           142.81      46.57       -124.42     
C           141.98      45.42       -124.29     
C           144.08      40.03       -119.72     
C           145.08      40.14       -118.69     
C           145.76      41.38       -118.54     
C           145.47      42.48       -119.35     
C           142.7       47.5        -125.44     
C           141.81      47.24       -126.45     
C           140.92      46.13       -126.32     
C           140.91      45.29       -125.21     
C           142.56      40.26       -122.46     
C           141.18      41.12       -120.36     
C           145.25      46.06       -124.21     
C           144.13      47.72       -122.71     
H           145.09      44.99       -121.14     
H           141.1       42.94       -123.28     
H           143.41      48.33       -125.63     
H           140.24      44.51       -125.15     
H           143.53      39.06       -119.79     
H           146.06      43.41       -119.27     
H           141.79      40.27       -123.08     
H           142.44      39.36       -121.93     
H           143.53756   40.28125    -122.94169  
H           141.03      41.9        -119.68     
H           141.2       40.25       -119.73     
H           140.27977   41.04203    -120.9696   
H           145.22      48.07       -122.8      
H           143.51      48.51       -123.11     
H           143.81818   47.69825    -121.66578  
H           146.03      46.02       -123.46     
H           145.54      46.93       -124.85     
H           145.26425   45.09092    -124.70879  
H           145.22      38.21       -117.62     
H           142.09      48.87       -128.01     
S           147.04      41.32       -117.28     
C           145.56      39.24       -117.66     
C           146.57      39.69       -116.84     
C           139.7       48.12       -132.74     
C           140.71      48.96       -132.01     
C           139.06      47.21       -131.91     
N           141.43      50.01       -132.4      
N           142.0       49.61       -130.23     
O           142.22      50.39       -131.34     
H           138.75      46.29       -130.02     
H           138.2       46.68       -132.3      
C           139.33      47.05       -130.54     
C           141.04      48.72       -130.6      
C           140.32      47.68       -129.86     
C           133.96      48.53       -148.25     
C           134.49      47.4        -147.7      
S           134.64      49.9        -147.33     
C           137.0       47.36       -142.2      
C           137.16      48.61       -142.86     
C           137.74      49.73       -142.19     
C           137.92      49.63       -140.84     
C           137.72      48.38       -140.16     
C           137.33      47.21       -140.86     
C           138.34      50.65       -139.81     
C           138.45      49.85       -138.52     
C           138.1       48.51       -138.77     
C           136.64      46.28       -143.17     
C           136.41      47.13       -144.44     
C           136.54      48.5        -144.18     
C           138.9       50.16       -137.28     
C           139.08      49.16       -136.3      
C           138.77      47.86       -136.57     
C           138.24      47.48       -137.81     
C           135.72      46.64       -145.51     
C           135.25      47.59       -146.47     
C           135.51      48.91       -146.17     
C           136.16      49.4        -145.05     
C           137.31      51.73       -139.38     
C           139.7       51.25       -140.25     
C           135.32      45.6        -142.64     
C           137.77      45.19       -143.23     
H           137.3       46.27       -140.38     
H           137.84      50.67       -142.76     
H           135.57      45.54       -145.7      
H           136.08      50.48       -144.81     
H           139.32      51.15       -137.11     
H           137.9       46.45       -138.0      
H           137.28      51.79       -138.34     
H           137.72      52.72       -139.53     
H           136.30355   51.58924    -139.77413  
H           139.41      51.8        -141.14     
H           140.1       52.08       -139.68     
H           140.42873   50.49941    -140.55607  
H           137.73      44.49       -142.36     
H           137.37      44.59       -144.03     
H           138.74024   45.61403    -143.48873  
H           135.7       45.14       -141.71     
H           135.02      44.73       -143.21     
H           134.53508   46.31224    -142.38563  
H           139.78      50.29       -134.47     
H           134.33      46.4        -148.15     
S           138.86      46.85       -135.08     
C           139.52      49.35       -134.94     
C           139.35      48.24       -134.13     
C           131.26      49.48       -151.68     
C           131.9       48.19       -151.48     
C           131.48      50.25       -150.54     
N           131.86      47.1        -152.3      
N           133.24      46.65       -150.59     
O           132.7       46.14       -151.76     
H           132.62      50.6        -148.7      
H           130.87      51.12       -150.42     
C           132.4       49.9        -149.48     
C           132.76      47.86       -150.38     
C           133.13      48.8        -149.41     
H           94.26       16.25       10.76       
H           130.61      49.7        -152.48     
