612

C           112.94      21.56       39.5        
C           111.87      21.83       40.28       
S           114.1       20.65       40.49       
C           111.07      19.59       45.87       
C           112.31      19.29       45.32       
C           113.15      18.37       45.9        
C           112.9       17.99       47.19       
C           111.78      18.5        47.91       
C           110.85      19.22       47.18       
C           113.63      16.83       48.02       
C           112.89      17.03       49.42       
C           111.74      17.91       49.26       
C           110.13      20.34       44.95       
C           111.04      20.54       43.76       
C           112.31      19.92       43.97       
C           113.1       16.35       50.62       
C           112.08      16.43       51.59       
C           110.89      17.18       51.3        
C           110.76      17.99       50.18       
C           110.78      21.18       42.55       
C           111.85      21.19       41.58       
C           113.06      20.5        41.89       
C           113.31      19.82       43.04       
C           115.12      17.04       48.34       
C           113.42      15.44       47.46       
C           109.79      21.72       45.63       
C           108.87      19.49       44.7        
H           109.92      19.5        47.62       
H           114.02      18.1        45.39       
H           109.85      21.77       42.42       
H           114.32      19.35       43.21       
H           114.02      15.84       50.78       
H           109.91      18.71       50.04       
H           115.78      16.74       47.52       
H           115.32      16.29       49.12       
H           115.35747   18.0178     48.75906    
H           112.37      15.1        47.34       
H           113.86      14.66       48.07       
H           113.79907   15.22634    46.46062    
H           108.16      19.51       45.47       
H           108.38      19.82       43.79       
H           109.1546    18.45375    44.51756    
H           109.28      21.52       46.57       
H           109.2       22.23       44.97       
H           110.62712   22.38159    45.85278    
H           112.73      14.95       53.25       
H           110.99      22.39       39.94       
S           109.7       16.8        52.51       
C           111.96      15.64       52.81       
C           110.8       15.71       53.42       
C           113.72      21.94       35.21       
C           112.45      22.29       35.82       
C           114.64      21.51       36.13       
N           111.4       22.69       35.23       
N           110.94      22.57       37.47       
O           110.56      23.1        36.26       
H           115.21      21.09       38.14       
H           115.61      21.33       35.8        
C           114.36      21.46       37.53       
C           112.2       22.18       37.21       
C           113.19      21.68       38.1        
C           118.34      23.05       19.0        
C           117.26      23.72       19.53       
S           119.18      22.23       20.3        
C           115.41      23.25       25.35       
C           116.64      22.68       25.05       
C           117.35      22.09       26.11       
C           116.82      21.92       27.39       
C           115.64      22.59       27.77       
C           115.04      23.3        26.74       
C           117.21      20.99       28.52       
C           116.38      21.57       29.68       
C           115.33      22.41       29.19       
C           114.83      23.95       24.08       
C           115.97      23.75       23.02       
C           116.92      22.87       23.61       
C           116.38      21.22       30.99       
C           115.31      21.66       31.81       
C           114.28      22.51       31.31       
C           114.29      22.92       29.98       
C           116.0       23.98       21.68       
C           117.09      23.55       20.96       
C           118.05      22.7        21.56       
C           118.0       22.32       22.89       
C           118.74      21.15       28.83       
C           116.78      19.49       28.44       
C           114.69      25.43       24.47       
C           113.51      23.36       23.55       
H           114.08      23.74       26.93       
H           118.29      21.56       25.84       
H           115.27      24.57       21.25       
H           118.76      21.61       23.34       
H           117.09      20.46       31.42       
H           113.53      23.58       29.61       
H           119.46      20.78       28.03       
H           118.96      20.49       29.73       
H           118.94712   22.1999     29.03712    
H           115.66      19.64       28.39       
H           117.22      18.92       29.27       
H           117.09143   19.02286    27.50571    
H           112.67      24.03       23.39       
H           113.67      22.95       22.51       
H           113.15199   22.51248    24.1345     
H           114.11      25.91       23.68       
H           114.02      25.53       25.41       
H           115.62213   25.99213    24.52692    
H           115.78      20.87       33.77       
H           116.55      24.16       18.92       
S           113.17      23.01       32.65       
C           115.12      21.47       33.22       
C           114.0       22.01       33.81       
C           119.4       22.48       14.79       
C           118.17      23.17       15.12       
C           120.13      22.01       15.83       
N           117.19      23.61       14.35       
N           116.46      23.7        16.47       
O           116.24      24.13       15.15       
H           120.59      22.02       17.86       
H           121.02      21.42       15.63       
C           119.81      22.28       17.18       
C           117.73      23.22       16.48       
C           118.63      22.89       17.58       
C           126.83      22.76       -0.04       
C           127.37      22.02       0.97        
S           125.15      23.2        0.33        
C           124.42      21.38       6.25        
C           123.64      21.8        5.18        
C           122.31      22.16       5.37        
C           121.83      22.11       6.69        
C           122.62      21.53       7.74        
C           123.94      21.16       7.5         
C           120.42      22.43       7.15        
C           120.56      22.23       8.66        
C           121.85      21.71       9.0         
C           125.75      20.83       5.74        
C           125.82      21.32       4.27        
C           124.53      21.84       3.98        
C           119.67      22.52       9.65        
C           120.05      22.39       11.05       
C           121.27      21.8        11.38       
C           122.17      21.44       10.37       
C           126.81      21.22       3.32        
C           126.45      21.81       2.09        
C           125.18      22.43       1.89        
C           124.16      22.44       2.77        
C           119.35      21.5        6.48        
C           119.93      23.9        6.96        
C           125.65      19.28       5.86        
C           126.99      21.36       6.51        
H           124.56      20.89       8.38        
H           121.71      22.64       4.6         
H           127.81      20.74       3.47        
H           123.19      22.93       2.58        
H           118.75      22.93       9.39        
H           123.13      20.9        10.55       
H           118.3       21.71       6.72        
H           119.41      21.68       5.35        
H           119.51128   20.43413    6.64128     
H           119.87      23.98       5.9         
H           119.0       24.11       7.54        
H           120.68698   24.64257    7.21233     
H           127.24      20.8        7.42        
H           127.84      21.29       5.79        
H           126.86591   22.43303    6.65599     
H           126.03      19.02       6.9         
H           124.65      19.01       5.94        
H           126.15904   18.71517    5.07901     
H           118.19      22.81       12.14       
H           128.35      21.64       0.97        
S           121.5       21.69       13.1        
C           119.22      22.6        12.2        
C           119.85      22.26       13.39       
C           128.83      24.32       -3.74       
C           129.47      23.65       -2.65       
C           127.46      24.39       -3.47       
N           130.81      23.41       -2.48       
N           129.86      22.59       -0.71       
O           131.0       22.63       -1.43       
H           125.71      23.95       -2.24       
H           126.76      24.89       -4.23       
C           126.79      23.85       -2.28       
C           128.9       23.16       -1.43       
C           127.48      23.24       -1.26       
C           135.96      30.69       -17.32      
C           134.75      30.03       -17.32      
S           136.9       30.34       -15.9       
C           132.23      27.75       -12.4       
C           133.61      28.11       -12.22      
C           134.28      28.02       -11.02      
C           133.53      27.48       -9.96       
C           132.15      27.34       -10.03      
C           131.46      27.46       -11.3       
C           134.0       27.3        -8.51       
C           132.7       26.76       -7.84       
C           131.62      26.89       -8.75       
C           131.78      27.9        -13.79      
C           133.04      28.44       -14.5       
C           134.09      28.5        -13.61      
C           132.52      26.12       -6.63       
C           131.28      25.65       -6.24       
C           130.23      25.82       -7.17       
C           130.37      26.45       -8.42       
C           133.19      28.86       -15.8       
C           134.44      29.35       -16.11      
C           135.49      29.5        -15.2       
C           135.3       28.92       -13.97      
C           134.52      28.69       -8.01       
C           135.12      26.24       -8.41       
C           130.64      28.94       -13.87      
C           131.32      26.57       -14.49      
H           130.46      27.29       -11.33      
H           135.36      28.29       -10.91      
H           132.4       28.69       -16.5       
H           136.07      28.9        -13.27      
H           133.31      25.92       -5.92       
H           129.52      26.52       -9.12       
H           135.58      28.64       -7.71       
H           134.56      29.39       -8.83       
H           133.90442   29.098      -7.20832    
H           135.93      26.73       -8.88       
H           135.38      25.92       -7.4        
H           134.97689   25.36704    -9.04683    
H           130.75      26.85       -15.39      
H           132.24      26.03       -14.76      
H           130.63622   25.93556    -13.92606   
H           129.89      28.54       -13.21      
H           130.14      29.08       -14.83      
H           130.9738    29.92719    -13.55041   
H           131.64      24.98       -4.27       
H           134.09      30.06       -18.19      
S           128.76      25.4        -6.33       
C           130.89      25.11       -4.99       
C           129.57      24.85       -4.86       
C           137.74      32.78       -20.82      
C           136.33      32.64       -20.6       
C           138.48      32.17       -19.87      
N           135.41      33.2        -21.28      
N           134.44      32.2        -19.58      
O           134.24      32.91       -20.67      
H           138.59      31.05       -18.02      
H           139.6       32.19       -19.81      
C           137.93      31.44       -18.79      
C           135.77      31.95       -19.49      
C           136.54      31.37       -18.47      
C           145.45      33.96       -35.06      
C           146.15      34.36       -33.96      
S           143.74      33.82       -34.75      
C           143.32      35.09       -28.7       
C           142.48      34.72       -29.75      
C           141.08      34.66       -29.68      
C           140.6       34.73       -28.42      
C           141.45      34.92       -27.28      
C           142.79      35.17       -27.44      
C           139.12      34.59       -28.02      
C           139.29      34.64       -26.53      
C           140.6       34.68       -26.11      
C           144.8       35.29       -29.11      
C           144.7       34.88       -30.6       
C           143.37      34.57       -30.88      
C           138.21      34.5        -25.66      
C           138.53      34.08       -24.33      
C           139.87      34.12       -23.87      
C           140.94      34.46       -24.77      
C           145.7       34.77       -31.47      
C           145.36      34.44       -32.75      
C           144.03      34.22       -33.08      
C           142.99      34.23       -32.12      
C           138.72      33.17       -28.45      
C           138.26      35.7        -28.64      
C           145.89      34.44       -28.49      
C           145.21      36.73       -28.83      
H           143.48      35.34       -26.68      
H           140.42      34.32       -30.49      
H           146.74      35.03       -31.17      
H           141.96      34.02       -32.49      
H           137.13      34.57       -25.96      
H           142.03      34.32       -24.55      
H           138.99      33.07       -29.5       
H           137.66      33.11       -28.46      
H           139.14453   32.30006    -27.94892   
H           138.65      35.84       -29.68      
H           137.24      35.57       -28.62      
H           138.49187   36.66842    -28.19671   
H           145.37      36.79       -27.71      
H           146.2       36.79       -29.29      
H           144.55569   37.50265    -29.23372   
H           146.83      34.85       -28.79      
H           145.93      34.59       -27.4       
H           145.7569    33.36821    -28.63711   
H           136.63      33.24       -23.53      
H           147.24      34.55       -34.03      
S           139.98      33.66       -22.19      
C           137.63      33.65       -23.22      
C           138.25      33.38       -22.04      
C           146.98      32.96       -39.11      
C           145.71      32.54       -38.61      
C           147.61      33.8        -38.21      
N           144.73      31.88       -39.26      
N           144.08      32.19       -37.11      
O           143.85      31.56       -38.31      
H           147.82      34.83       -36.4       
H           148.46      34.36       -38.53      
C           147.14      34.08       -36.9       
C           145.23      32.82       -37.3       
C           145.94      33.72       -36.44      
C           147.63      31.77       -55.6       
C           146.66      31.28       -54.79      
S           148.86      32.57       -54.59      
C           146.75      31.55       -48.68      
C           147.88      32.12       -49.34      
C           148.93      32.71       -48.62      
C           148.84      32.77       -47.21      
C           147.71      32.18       -46.64      
C           146.7       31.6        -47.34      
C           149.8       33.38       -46.16      
C           148.98      33.04       -44.87      
C           147.83      32.23       -45.17      
C           145.81      30.95       -49.72      
C           146.46      31.38       -51.01      
C           147.75      31.93       -50.78      
C           149.29      33.42       -43.59      
C           148.5       32.94       -42.55      
C           147.5       31.96       -42.84      
C           147.18      31.53       -44.16      
C           146.09      31.14       -52.29      
C           146.97      31.34       -53.39      
C           148.08      32.14       -53.13      
C           148.58      32.32       -51.83      
C           150.04      34.89       -46.37      
C           151.09      32.56       -45.93      
C           144.33      31.4        -49.52      
C           145.84      29.32       -49.67      
H           145.91      31.18       -46.83      
H           149.73      33.23       -49.09      
H           145.11      30.73       -52.48      
H           149.43      32.93       -51.68      
H           150.08      34.09       -43.32      
H           146.36      30.82       -44.35      
H           150.69      35.29       -45.5       
H           150.61      35.14       -47.23      
H           149.11515   35.44785    -46.2232    
H           151.82      33.24       -46.44      
H           151.42      32.59       -44.85      
H           151.02069   31.54118    -46.31119   
H           145.28      28.82       -50.39      
H           146.86      28.99       -49.79      
H           145.57181   28.91065    -48.69604   
H           143.76      30.58       -49.93      
H           144.17      31.46       -48.46      
H           144.12008   32.30266    -50.09379   
H           149.07      34.17       -40.82      
H           145.64      31.07       -55.13      
S           146.77      31.38       -41.39      
C           148.42      33.38       -41.22      
C           147.51      32.65       -40.42      
C           147.63      33.28       -59.76      
C           148.84      32.87       -59.11      
C           146.49      33.2        -58.94      
N           150.12      32.85       -59.52      
N           150.04      32.02       -57.42      
O           150.78      32.29       -58.5       
H           145.47      32.64       -57.22      
H           145.59      33.6        -59.23      
C           146.44      32.56       -57.64      
C           148.82      32.32       -57.75      
C           147.57      32.05       -57.05      
C           144.36      42.76       -72.92      
C           143.47      42.23       -72.04      
S           146.04      42.45       -72.4       
C           144.71      38.39       -67.68      
C           145.88      38.94       -68.28      
C           147.15      38.53       -67.88      
C           147.26      37.61       -66.86      
C           146.13      37.05       -66.27      
C           144.82      37.38       -66.7       
C           148.56      37.27       -66.11      
C           148.01      36.46       -64.89      
C           146.55      36.33       -65.08      
C           143.44      38.8        -68.39      
C           144.05      39.81       -69.38      
C           145.42      39.78       -69.39      
C           148.75      35.74       -63.94      
C           147.97      34.99       -63.06      
C           146.54      35.01       -63.07      
C           145.78      35.63       -64.1       
C           143.28      40.63       -70.22      
C           144.05      41.43       -71.08      
C           145.47      41.39       -71.09      
C           146.18      40.52       -70.24      
C           149.22      38.61       -65.57      
C           149.64      36.47       -66.92      
C           142.57      39.57       -67.38      
C           142.69      37.62       -69.12      
H           143.93      37.1        -66.12      
H           148.06      38.98       -68.37      
H           142.21      40.77       -70.14      
H           147.21      40.58       -70.24      
H           149.83      35.86       -63.89      
H           144.68      35.61       -64.02      
H           149.94      38.28       -64.84      
H           149.84      39.07       -66.3       
H           148.44981   39.2014     -65.07488   
H           149.95      37.15       -67.77      
H           150.51      36.23       -66.39      
H           149.28753   35.52048    -67.32283   
H           142.24      37.04       -68.31      
H           141.8       37.91       -69.68      
H           143.35178   37.05276    -69.77451   
H           142.23      38.85       -66.62      
H           141.68      39.9        -67.91      
H           143.10417   40.32495    -66.8031    
H           149.51      34.4        -61.48      
H           142.36      42.49       -72.06      
S           145.92      34.14       -61.68      
C           148.47      34.35       -61.83      
C           147.5       33.84       -61.15      
C           143.59      44.68       -76.82      
C           144.89      44.82       -76.23      
C           142.69      43.91       -76.14      
N           145.94      45.48       -76.64      
N           146.39      44.42       -74.71      
O           146.86      45.25       -75.66      
H           142.12      42.91       -74.33      
H           141.72      43.71       -76.54      
C           142.96      43.45       -74.79      
C           145.18      44.13       -75.05      
C           144.18      43.43       -74.19      
C           139.21      49.36       -92.25      
C           138.45      48.54       -91.48      
S           140.31      50.22       -91.23      
C           139.67      47.37       -85.6       
C           140.38      48.56       -86.08      
C           141.3       49.26       -85.28      
C           141.64      48.72       -84.05      
C           140.97      47.54       -83.58      
C           139.98      46.88       -84.35      
C           142.83      49.14       -83.14      
C           142.61      48.11       -82.02      
C           141.6       47.16       -82.25      
C           138.72      46.78       -86.63      
C           138.95      47.76       -87.78      
C           140.01      48.66       -87.52      
C           143.32      47.9        -80.81      
C           143.06      46.87       -79.92      
C           141.98      45.96       -80.2       
C           141.24      46.12       -81.37      
C           138.29      47.74       -89.0       
C           138.87      48.45       -90.09      
C           139.98      49.33       -89.78      
C           140.54      49.51       -88.5       
C           142.67      50.63       -82.72      
C           144.2       48.88       -83.83      
C           137.28      46.84       -86.02      
C           139.12      45.37       -87.05      
H           139.48      45.94       -84.11      
H           141.84      50.04       -85.76      
H           137.37      47.23       -89.07      
H           141.31      50.21       -88.25      
H           144.22      48.49       -80.6       
H           140.42      45.46       -81.64      
H           142.75      51.25       -83.56      
H           141.69      50.64       -82.25      
H           143.39533   50.91726    -81.95876   
H           144.51      49.71       -84.45      
H           144.95      48.8        -83.07      
H           144.17889   47.9932     -84.46343   
H           138.73      44.64       -86.3       
H           138.74      45.3        -88.05      
H           140.17381   45.1011     -87.12268   
H           137.25      46.19       -85.17      
H           136.5       46.51       -86.77      
H           137.08904   47.85358    -85.66745   
H           144.67      46.68       -78.46      
H           137.6       47.96       -91.93      
S           141.8       44.77       -78.91      
C           143.71      46.33       -78.77      
C           143.19      45.34       -78.04      
C           138.68      50.88       -96.31      
C           137.62      50.15       -95.62      
C           139.8       51.05       -95.58      
N           136.38      49.94       -95.97      
N           136.61      49.07       -93.97      
O           135.85      49.09       -95.08      
H           140.93      50.77       -93.8       
H           140.63      51.64       -96.07      
C           139.96      50.62       -94.24      
C           137.81      49.66       -94.31      
C           139.02      49.83       -93.62      
C           136.23      57.52       -111.53     
C           135.46      57.72       -110.44     
S           137.53      56.33       -111.15     
C           136.2       55.08       -105.0      
C           137.25      54.79       -105.95     
C           138.33      54.01       -105.57     
C           138.43      53.56       -104.24     
C           137.39      53.73       -103.32     
C           136.23      54.49       -103.7      
C           139.5       52.69       -103.57     
C           139.07      52.58       -102.16     
C           137.75      53.05       -102.05     
C           135.12      55.89       -105.71     
C           135.84      56.25       -107.0      
C           137.05      55.54       -107.17     
C           139.69      51.98       -101.08     
C           138.93      51.92       -99.89      
C           137.56      52.27       -99.82      
C           136.95      52.82       -100.94     
C           135.32      57.01       -108.0      
C           135.85      56.95       -109.28     
C           137.07      56.19       -109.49     
C           137.66      55.47       -108.49     
C           140.99      53.3        -103.59     
C           139.54      51.22       -104.15     
C           134.88      57.19       -104.89     
C           133.71      55.19       -105.98     
H           135.4       54.63       -103.02     
H           139.11      53.81       -106.22     
H           134.49      57.71       -107.79     
H           138.59      54.92       -108.57     
H           140.82      51.8        -101.02     
H           135.96      53.24       -100.93     
H           141.39      53.47       -104.57     
H           141.71      52.6        -103.2      
H           141.03332   54.2531     -103.06291  
H           138.5       50.84       -104.01     
H           140.16      50.47       -103.75     
H           139.6792    51.1504     -105.22883  
H           133.2       54.92       -105.1      
H           133.04      55.64       -106.63     
H           133.88676   54.27084    -106.53857  
H           134.5       56.99       -103.91     
H           134.23      57.82       -105.54     
H           135.78326   57.79217    -104.79197  
H           140.61      51.29       -98.57      
H           134.67      58.46       -110.39     
S           136.9       51.9        -98.28      
C           139.53      51.47       -98.64      
C           138.52      51.35       -97.68      
C           136.79      60.14       -115.13     
C           135.57      60.02       -114.5      
C           137.67      59.17       -114.65     
N           134.49      60.83       -114.71     
N           134.15      59.46       -112.88     
O           133.65      60.4        -113.68     
H           138.44      57.69       -113.29     
H           138.65      59.11       -115.22     
C           137.51      58.19       -113.59     
C           135.35      59.09       -113.38     
C           136.31      58.11       -112.87     
C           142.11      74.23       -121.43     
C           142.97      73.41       -120.68     
S           140.45      73.52       -121.51     
C           141.11      68.1        -118.5      
C           140.1       68.84       -119.13     
C           138.81      68.37       -119.39     
C           138.53      67.08       -119.09     
C           139.53      66.3        -118.51     
C           140.81      66.81       -118.26     
C           137.12      66.45       -119.06     
C           137.6       65.09       -118.52     
C           139.01      65.02       -118.17     
C           142.42      68.88       -118.28     
C           142.04      70.14       -119.11     
C           140.68      70.14       -119.43     
C           136.77      64.02       -118.25     
C           137.27      62.98       -117.44     
C           138.65      62.9        -117.14     
C           139.54      63.89       -117.53     
C           142.81      71.26       -119.28     
C           142.31      72.25       -120.13     
C           140.91      72.24       -120.53     
C           140.09      71.2        -120.13     
C           136.65      66.37       -120.59     
C           136.14      67.22       -118.12     
C           143.63      68.09       -118.9      
C           142.67      69.34       -116.86     
H           141.54      66.11       -117.93     
H           138.11      69.03       -119.82     
H           143.85      71.35       -118.94     
H           139.0       71.27       -120.23     
H           135.72      64.17       -118.53     
H           140.6       63.82       -117.27     
H           136.7       67.26       -121.04     
H           137.39      65.7        -121.02     
H           135.69191   65.89445    -120.7998   
H           135.96      68.23       -118.44     
H           135.17      66.7        -117.95     
H           136.52338   67.39361    -117.11453  
H           143.65      69.73       -116.88     
H           141.91      70.13       -116.61     
H           142.81614   68.55816    -116.1147   
H           143.78      67.15       -118.4      
H           144.5       68.67       -118.73     
H           143.51291   67.90403    -119.96762  
H           135.38      61.97       -116.85     
H           144.06      73.73       -120.55     
S           138.93      61.57       -116.04     
C           136.46      62.03       -116.76     
C           137.23      61.18       -116.09     
C           142.88      77.76       -123.96     
C           143.85      77.23       -123.02     
C           141.75      77.01       -124.02     
N           145.03      77.76       -122.75     
N           144.62      76.06       -121.31     
O           145.52      76.95       -121.75     
H           140.5       75.48       -123.18     
H           141.05      77.3        -124.84     
C           141.45      75.91       -123.1      
C           143.59      76.19       -122.14     
C           142.33      75.44       -122.16     
H           110.49      14.93       54.13       
H           143.12      78.58       -124.65     
