612

C           100.48      45.4        29.89       
C           100.77      45.52       31.19       
S           98.87       44.76       29.56       
C           96.71       44.55       35.62       
C           96.15       44.32       34.31       
C           94.82       43.97       34.14       
C           93.93       43.9        35.2        
C           94.48       44.1        36.51       
C           95.9        44.35       36.69       
C           92.42       43.5        35.24       
C           92.2        43.76       36.77       
C           93.43       43.9        37.48       
C           98.18       44.79       35.62       
C           98.4        44.98       34.1        
C           97.24       44.52       33.39       
C           91.07       43.66       37.48       
C           91.02       43.63       38.82       
C           92.23       43.85       39.52       
C           93.44       43.95       38.87       
C           99.57       45.17       33.44       
C           99.63       45.16       32.0        
C           98.43       44.77       31.34       
C           97.26       44.43       32.01       
C           92.2        42.04       34.81       
C           91.54       44.51       34.42       
C           98.87       43.55       36.26       
C           98.56       46.1        36.37       
H           96.37       44.52       37.63       
H           94.33       43.82       33.16       
H           100.42      45.59       33.98       
H           96.42       44.22       31.41       
H           90.09       43.66       36.96       
H           94.33       44.17       39.48       
H           92.24       42.02       33.71       
H           91.21       41.85       35.11       
H           92.89679    41.35032    35.28637    
H           91.33       45.4        34.99       
H           90.59       44.0        34.44       
H           91.79017    44.69395    33.37517    
H           98.19       46.02       37.41       
H           99.66       46.2        36.45       
H           98.17512    47.00773    35.90524    
H           98.45       43.51       37.24       
H           99.9        43.75       36.47       
H           98.66945    42.61889    35.72998    
H           88.84       43.71       39.58       
H           101.7       45.89       31.65       
S           92.04       43.77       41.22       
C           89.88       43.71       39.85       
C           90.26       43.55       41.16       
C           103.5       46.4        26.75       
C           102.1       46.21       26.38       
C           103.75      46.22       28.06       
N           101.49      46.32       25.26       
N           99.93       45.74       26.81       
O           100.23      45.94       25.45       
H           103.08      45.59       30.07       
H           104.76      46.29       28.46       
C           102.72      45.84       29.05       
C           101.11      45.85       27.4        
C           101.43      45.67       28.79       
C           116.64      49.03       16.95       
C           116.65      49.37       18.26       
S           115.0       48.74       16.38       
C           111.77      48.84       21.93       
C           111.48      48.9        20.58       
C           110.21      48.76       20.05       
C           109.19      48.65       20.94       
C           109.47      48.43       22.29       
C           110.72      48.55       22.82       
C           107.75      48.33       20.57       
C           107.18      48.03       22.02       
C           108.26      48.11       23.01       
C           113.27      48.97       22.19       
C           113.79      49.07       20.76       
C           112.73      49.0        19.77       
C           105.91      47.7        22.46       
C           105.67      47.48       23.82       
C           106.74      47.62       24.79       
C           108.07      47.82       24.34       
C           115.03      49.32       20.34       
C           115.42      49.24       18.94       
C           114.37      49.04       17.96       
C           113.03      49.0        18.37       
C           107.64      47.19       19.56       
C           106.94      49.58       20.03       
C           113.88      47.65       22.8        
C           113.69      50.28       22.97       
H           110.93      48.42       23.93       
H           110.02      48.76       18.96       
H           115.83      49.39       21.09       
H           112.28      49.08       17.65       
H           104.97      47.56       21.85       
H           108.95      47.76       25.01       
H           107.99      47.51       18.58       
H           106.59      46.87       19.5        
H           108.27699   46.35856    19.86173    
H           106.9       50.25       20.9        
H           105.88      49.35       19.92       
H           107.44675   50.1602     19.25885    
H           114.73      50.37       23.26       
H           113.37      51.15       22.42       
H           113.22009   50.33611    23.9519     
H           114.88      47.91       23.07       
H           113.28      47.47       23.62       
H           113.8007    46.77772    22.1512     
H           103.52      46.74       23.93       
H           117.53      49.63       18.78       
S           106.16      47.21       26.43       
C           104.47      46.96       24.45       
C           104.54      46.87       25.84       
C           119.74      49.35       13.75       
C           119.61      50.32       14.77       
C           118.73      48.47       13.79       
N           120.42      51.39       14.95       
N           118.87      51.26       16.67       
O           119.97      51.86       16.09       
H           116.86      47.81       14.56       
H           118.57      47.77       13.0        
C           117.69      48.47       14.81       
C           118.63      50.26       15.78       
C           117.62      49.27       15.91       
C           127.03      48.71       -0.77       
C           127.15      47.63       0.05        
S           127.1       50.25       0.16        
C           125.57      48.06       5.78        
C           125.76      49.27       5.13        
C           125.2       50.43       5.6         
C           124.42      50.43       6.73        
C           124.25      49.16       7.43        
C           124.87      48.0        6.94        
C           123.82      51.56       7.6         
C           123.09      50.78       8.67        
C           123.32      49.37       8.57        
C           125.91      46.9        4.87        
C           126.55      47.57       3.7         
C           126.37      48.96       3.84        
C           122.32      51.28       9.76        
C           121.78      50.4        10.72       
C           122.08      48.96       10.56       
C           122.84      48.41       9.5         
C           126.88      47.03       2.5         
C           127.03      47.87       1.41        
C           127.01      49.28       1.62        
C           126.65      49.86       2.84        
C           122.78      52.3        6.71        
C           124.84      52.52       8.18        
C           124.58      46.11       4.48        
C           127.02      45.96       5.44        
H           124.89      47.09       7.5         
H           125.44      51.38       5.09        
H           126.86      45.98       2.31        
H           126.52      50.98       3.04        
H           122.09      52.4        9.84        
H           122.92      47.31       9.38        
H           122.5       53.28       7.1         
H           123.27      52.51       5.78        
H           121.86298   51.72599    6.577       
H           125.27      53.26       7.51        
H           124.55      53.18       8.98        
H           125.7802    52.03897    8.44967     
H           127.12      45.26       4.61        
H           127.95      46.49       5.5         
H           126.76533   45.48603    6.38794     
H           124.84      45.36       3.7         
H           124.15      45.51       5.37        
H           123.78881   46.7327     4.06243     
H           120.51      51.73       12.07       
H           127.21      46.59       -0.31       
S           121.25      48.12       11.87       
C           120.91      50.71       11.82       
C           120.48      49.59       12.49       
C           127.05      49.13       -5.22       
C           127.32      47.88       -4.52       
C           127.12      50.22       -4.38       
N           127.48      46.6        -4.98       
N           127.35      46.53       -2.74       
O           127.56      45.77       -3.83       
H           127.02      50.99       -2.31       
H           126.98      51.26       -4.78       
C           127.1       50.09       -2.92       
C           127.16      47.75       -3.11       
C           127.06      48.86       -2.22       
C           128.33      49.87       -21.84      
C           128.9       50.83       -21.09      
S           127.45      48.59       -20.95      
C           128.28      50.5        -14.95      
C           127.87      49.32       -15.64      
C           127.19      48.34       -14.97      
C           126.99      48.47       -13.6       
C           127.47      49.65       -12.94      
C           128.03      50.73       -13.61      
C           126.43      47.46       -12.61      
C           126.75      48.17       -11.28      
C           127.42      49.44       -11.47      
C           129.06      51.44       -15.88      
C           128.81      50.69       -17.23      
C           128.12      49.5        -17.06      
C           126.59      47.64       -9.98       
C           126.89      48.53       -8.92       
C           127.53      49.75       -9.1        
C           127.84      50.24       -10.39      
C           129.12      51.18       -18.47      
C           128.73      50.5        -19.66      
C           127.91      49.35       -19.43      
C           127.64      48.83       -18.13      
C           127.2       46.11       -12.76      
C           124.88      47.12       -12.74      
C           130.54      51.51       -15.34      
C           128.38      52.8        -15.9       
H           128.47      51.53       -13.06      
H           126.72      47.39       -15.46      
H           129.79      51.99       -18.61      
H           127.09      47.95       -18.0       
H           126.03      46.76       -9.68       
H           128.4       51.13       -10.53      
H           126.54      45.36       -12.23      
H           127.16      45.8        -13.82      
H           128.23015   46.15939    -12.40721   
H           124.74      46.54       -13.64      
H           124.61      46.42       -11.99      
H           124.28272   48.02646    -12.83838   
H           127.34      52.8        -16.32      
H           128.05      53.13       -14.95      
H           128.94555   53.58898    -16.39573   
H           130.64      52.05       -14.45      
H           131.2       52.02       -16.04      
H           130.93466   50.49825    -15.24672   
H           126.15      47.37       -7.21       
H           129.56      51.6        -21.47      
S           127.71      50.64       -7.59       
C           126.63      48.29       -7.57       
C           127.11      49.22       -6.73       
C           128.48      49.33       -26.27      
C           129.16      50.46       -25.66      
C           127.88      48.53       -25.33      
N           130.12      51.26       -26.11      
N           129.77      51.82       -23.98      
O           130.46      52.17       -25.09      
H           127.29      47.93       -23.43      
H           127.34      47.6        -25.64      
C           127.82      48.74       -23.89      
C           129.12      50.68       -24.23      
C           128.41      49.82       -23.26      
C           136.21      42.66       -39.19      
C           135.42      41.91       -38.42      
S           135.96      44.31       -38.81      
C           131.53      44.6        -34.34      
C           132.26      45.44       -35.17      
C           132.23      46.86       -34.93      
C           131.52      47.31       -33.77      
C           130.73      46.41       -33.03      
C           130.62      45.1        -33.39      
C           131.51      48.73       -33.11      
C           130.69      48.41       -31.89      
C           130.09      47.15       -31.92      
C           131.77      43.14       -34.77      
C           132.83      43.22       -35.83      
C           133.12      44.55       -36.03      
C           130.5       49.31       -30.88      
C           129.73      48.88       -29.75      
C           129.23      47.55       -29.81      
C           129.32      46.69       -30.88      
C           133.51      42.27       -36.58      
C           134.48      42.65       -37.5       
C           134.78      44.03       -37.57      
C           134.09      44.98       -36.88      
C           130.9       49.77       -34.08      
C           132.96      49.12       -32.71      
C           130.37      42.66       -35.35      
C           132.19      42.38       -33.49      
H           130.18      44.42       -32.7       
H           132.77      47.59       -35.52      
H           133.26      41.26       -36.35      
H           134.32      46.11       -36.98      
H           131.03      50.25       -30.77      
H           128.81      45.71       -30.92      
H           131.33      49.77       -35.06      
H           131.0       50.72       -33.58      
H           129.81724   49.73462    -34.20031   
H           133.44      49.36       -33.64      
H           133.02      50.03       -32.15      
H           133.52123   48.29591    -32.26954   
H           131.31      42.34       -32.9       
H           132.67      41.44       -33.67      
H           132.9188    42.95313    -32.91687   
H           129.67      42.76       -34.51      
H           129.98      43.22       -36.13      
H           130.38414   41.65604    -35.77421   
H           129.64      50.62       -28.39      
H           135.42      40.8        -38.39      
S           128.41      47.23       -28.29      
C           129.46      49.57       -28.51      
C           128.69      48.87       -27.65      
C           138.95      41.63       -42.6       
C           137.77      40.87       -42.24      
C           139.11      42.74       -41.77      
N           137.32      39.73       -42.82      
N           135.97      40.21       -41.07      
O           136.22      39.35       -42.13      
H           138.45      44.0        -40.07      
H           140.05      43.27       -41.69      
C           138.2       43.12       -40.67      
C           136.93      41.15       -41.16      
C           137.09      42.34       -40.32      
C           144.67      45.06       -57.28      
C           144.93      45.71       -56.16      
S           144.39      43.36       -56.88      
C           143.97      43.48       -50.48      
C           143.73      42.49       -51.53      
C           143.09      41.29       -51.24      
C           142.63      41.09       -49.93      
C           142.94      42.04       -48.92      
C           143.68      43.19       -49.18      
C           141.64      40.02       -49.49      
C           141.47      40.45       -48.03      
C           142.29      41.58       -47.71      
C           144.36      44.85       -51.13      
C           144.5       44.44       -52.56      
C           144.19      43.03       -52.79      
C           140.6       40.03       -47.05      
C           140.52      40.7        -45.86      
C           141.42      41.81       -45.61      
C           142.38      42.19       -46.44      
C           144.8       45.34       -53.57      
C           144.68      45.01       -54.93      
C           144.37      43.62       -55.12      
C           144.14      42.65       -54.12      
C           142.26      38.58       -49.56      
C           140.38      40.14       -50.42      
C           145.69      45.31       -50.52      
C           143.35      45.95       -51.07      
H           143.88      43.9        -48.41      
H           143.02      40.58       -52.06      
H           145.12      46.34       -53.28      
H           143.88      41.65       -54.4       
H           139.89      39.19       -47.23      
H           143.11      42.96       -46.21      
H           142.22      38.35       -50.66      
H           143.3       38.69       -49.3       
H           141.66864   37.77992    -49.11474   
H           140.85      40.22       -51.38      
H           139.64      39.32       -50.39      
H           139.85255   41.0793     -50.25382   
H           143.19      46.24       -50.05      
H           143.7       46.91       -51.59      
H           142.42218   45.62011    -51.53735   
H           145.78      46.4        -50.77      
H           145.54      45.42       -49.48      
H           146.57085   44.75947    -50.85032   
H           138.8       39.85       -44.82      
H           145.13      46.77       -56.11      
S           141.31      42.29       -43.92      
C           139.62      40.55       -44.75      
C           139.76      41.38       -43.78      
C           145.07      45.81       -61.64      
C           145.65      46.75       -60.64      
C           144.34      44.79       -61.03      
N           146.27      47.94       -60.8       
N           146.05      47.49       -58.54      
O           146.42      48.36       -59.52      
H           143.46      43.86       -59.35      
H           143.78      44.05       -61.63      
C           144.18      44.63       -59.63      
C           145.55      46.49       -59.21      
C           144.82      45.37       -58.68      
C           146.17      45.93       -78.16      
C           145.79      44.74       -77.59      
S           146.35      47.21       -76.99      
C           145.06      44.35       -71.49      
C           145.69      45.46       -72.1       
C           146.13      46.53       -71.3       
C           146.01      46.4        -69.92      
C           145.28      45.37       -69.29      
C           144.82      44.31       -70.05      
C           146.49      47.49       -68.91      
C           145.99      46.89       -67.57      
C           145.39      45.65       -67.84      
C           144.88      43.39       -72.66      
C           145.05      44.22       -73.95      
C           145.6       45.44       -73.54      
C           146.19      47.4        -66.31      
C           145.68      46.6        -65.23      
C           145.13      45.28       -65.44      
C           145.0       44.81       -66.77      
C           145.05      43.88       -75.31      
C           145.5       44.83       -76.21      
C           145.82      46.14       -75.75      
C           145.88      46.47       -74.42      
C           145.81      48.89       -69.19      
C           148.08      47.41       -68.86      
C           143.44      42.77       -72.66      
C           145.93      42.26       -72.53      
H           144.41      43.43       -69.52      
H           146.54      47.41       -71.78      
H           144.93      42.9        -75.7       
H           146.23      47.41       -74.01      
H           146.65      48.33       -66.08      
H           144.7       43.79       -66.95      
H           145.92      49.15       -70.24      
H           144.75      48.93       -68.86      
H           146.31256   49.72062    -68.69442   
H           148.45      47.85       -69.78      
H           148.51      48.01       -68.04      
H           148.46744   46.39118    -68.86      
H           145.86      41.73       -73.44      
H           147.01      42.66       -72.5       
H           145.84771   41.51937    -71.73451   
H           143.22      42.12       -71.79      
H           143.4       42.11       -73.59      
H           142.66738   43.52895    -72.78307   
H           145.93      47.86       -63.41      
H           145.61      43.92       -78.19      
S           144.71      44.43       -63.99      
C           145.67      46.85       -63.83      
C           145.19      45.86       -63.09      
C           148.17      46.38       -82.08      
C           147.75      47.48       -81.32      
C           147.72      45.17       -81.54      
N           147.81      48.77       -81.66      
N           146.69      48.6        -79.68      
O           147.2       49.43       -80.64      
H           147.01      44.02       -79.93      
H           147.96      44.22       -82.08      
C           147.13      45.04       -80.26      
C           147.0       47.36       -80.13      
C           146.67      46.1        -79.48      
C           157.06      44.15       -95.77      
C           157.14      43.36       -94.63      
S           156.21      45.62       -95.4       
C           154.29      44.67       -89.44      
C           154.22      45.7        -90.43      
C           153.48      46.87       -90.22      
C           152.76      46.96       -89.09      
C           152.8       45.9        -88.16      
C           153.51      44.77       -88.33      
C           151.81      48.06       -88.64      
C           151.24      47.41       -87.34      
C           151.87      46.17       -87.08      
C           155.34      43.6        -89.77      
C           155.58      44.02       -91.24      
C           154.99      45.25       -91.54      
C           150.26      47.9        -86.53      
C           149.99      47.2        -85.33      
C           150.59      45.88       -85.12      
C           151.5       45.35       -86.0       
C           156.33      43.36       -92.25      
C           156.51      43.94       -93.5       
C           155.89      45.22       -93.74      
C           155.11      45.89       -92.78      
C           150.81      48.39       -89.85      
C           152.65      49.31       -88.32      
C           154.74      42.21       -89.7       
C           156.63      43.7        -88.99      
H           153.42      43.93       -87.6       
H           153.31      47.69       -91.05      
H           156.85      42.47       -91.96      
H           154.65      46.81       -92.98      
H           149.94      48.91       -86.67      
H           152.14      44.52       -85.72      
H           151.37      48.72       -90.7       
H           150.25      47.6        -90.42      
H           150.04852   49.10797    -89.54541   
H           152.98      49.87       -89.19      
H           152.01      50.03       -87.83      
H           153.53387   49.05433    -87.73562   
H           157.22      42.77       -88.97      
H           157.2       44.37       -89.57      
H           156.62298   44.19866    -88.02078   
H           154.31      41.94       -88.68      
H           155.6       41.56       -89.96      
H           153.98678   42.00269    -90.46013   
H           148.56      48.43       -84.13      
H           157.57      42.37       -94.58      
S           150.11      45.18       -83.54      
C           149.15      47.52       -84.17      
C           148.94      46.44       -83.35      
C           157.94      43.31       -99.99      
C           157.94      42.29       -99.04      
C           157.81      44.48       -99.46      
N           158.13      41.01       -99.28      
N           157.75      41.35       -97.02      
O           158.13      40.44       -98.03      
H           157.16      45.76       -97.88      
H           157.87      45.38       -100.08     
C           157.43      44.68       -98.14      
C           157.62      42.49       -97.65      
C           157.33      43.76       -97.15      
C           164.13      44.59       -115.3      
C           163.41      45.56       -114.86     
S           164.69      43.63       -113.96     
C           160.68      45.07       -109.32     
C           161.53      44.03       -109.67     
C           161.92      42.98       -108.83     
C           161.43      42.98       -107.54     
C           160.58      43.99       -107.14     
C           160.23      45.04       -107.99     
C           161.68      42.01       -106.34     
C           161.14      42.83       -105.18     
C           160.26      43.81       -105.7      
C           160.57      46.18       -110.43     
C           161.5       45.6        -111.47     
C           162.06      44.39       -111.01     
C           160.92      42.35       -103.9      
C           159.97      42.96       -103.16     
C           159.11      43.92       -103.71     
C           159.24      44.4        -105.0      
C           161.85      46.12       -112.75     
C           162.88      45.43       -113.49     
C           163.43      44.28       -112.92     
C           163.11      43.77       -111.67     
C           163.19      41.89       -106.1      
C           160.91      40.65       -106.32     
C           161.04      47.6        -110.01     
C           159.18      46.28       -111.17     
H           159.61      45.86       -107.52     
H           162.55      42.18       -109.16     
H           161.3       46.96       -113.12     
H           163.64      42.95       -111.26     
H           161.41      41.46       -103.51     
H           158.65      45.24       -105.3      
H           163.71      41.47       -106.95     
H           163.42      41.27       -105.24     
H           163.67429   42.8656     -106.05789  
H           159.81      40.67       -106.12     
H           161.44      40.0        -105.64     
H           160.98851   40.10754    -107.26216  
H           158.95      47.18       -111.82     
H           159.12      45.49       -111.86     
H           158.31642   46.15362    -110.51705  
H           160.56      47.93       -109.08     
H           160.73      48.28       -110.85     
H           162.10196   47.6        -109.76438  
H           160.2       41.97       -101.16     
H           163.0       46.25       -115.56     
S           157.9       44.31       -102.55     
C           159.62      42.64       -101.84     
C           158.51      43.23       -101.32     
C           165.27      43.18       -119.31     
C           165.11      44.59       -118.99     
C           164.82      42.44       -118.31     
N           165.49      45.66       -119.78     
N           164.75      46.39       -117.73     
O           165.33      46.74       -118.89     
H           164.17      42.13       -116.24     
H           164.77      41.32       -118.48     
C           164.48      42.87       -116.98     
C           164.74      45.03       -117.7      
C           164.37      44.19       -116.64     
C           168.93      36.98       -134.48     
C           168.87      38.3        -134.19     
S           168.71      36.0        -132.99     
C           168.41      40.63       -128.51     
C           168.28      39.2        -128.65     
C           167.9       38.44       -127.6      
C           167.77      39.09       -126.34     
C           167.88      40.49       -126.21     
C           168.26      41.23       -127.3      
C           167.39      38.47       -125.0      
C           167.12      39.66       -124.15     
C           167.41      40.82       -124.83     
C           168.75      41.21       -129.91     
C           168.74      39.99       -130.83     
C           168.57      38.82       -130.06     
C           166.62      39.7        -122.84     
C           166.32      40.92       -122.26     
C           166.66      42.11       -122.92     
C           167.17      42.02       -124.2      
C           168.83      39.91       -132.21     
C           168.83      38.58       -132.75     
C           168.72      37.43       -131.92     
C           168.58      37.53       -130.55     
C           168.54      37.61       -124.35     
C           166.0       37.69       -125.23     
C           170.21      41.83       -129.92     
C           167.67      42.26       -130.34     
H           168.35      42.27       -127.15     
H           167.9       37.37       -127.68     
H           168.77      40.73       -132.88     
H           168.42      36.61       -129.93     
H           166.5       38.78       -122.33     
H           167.46      42.97       -124.7      
H           169.49      38.15       -124.32     
H           168.37      37.24       -123.28     
H           168.82809   36.71694    -124.90456  
H           166.01      36.95       -126.07     
H           165.82      37.1        -124.29     
H           165.14779   38.33098    -125.4558   
H           167.85      42.6        -131.34     
H           166.7       41.71       -130.48     
H           167.376     43.00576    -129.60141  
H           170.34      42.35       -129.01     
H           170.23      42.58       -130.78     
H           171.04808   41.13397    -129.95551  
H           165.48      40.49       -120.21     
H           168.93      39.17       -134.8      
S           166.45      43.51       -121.9      
C           165.86      41.21       -120.93     
C           165.76      42.54       -120.61     
C           169.06      34.9        -138.52     
C           169.45      36.24       -138.27     
C           168.63      34.38       -137.39     
N           170.14      37.05       -139.15     
N           169.95      38.19       -137.12     
O           170.43      38.2        -138.4      
H           168.06      34.56       -135.22     
H           168.26      33.38       -137.41     
C           168.59      35.06       -136.02     
C           169.51      36.98       -136.98     
C           169.04      36.35       -135.78     
H           89.71       42.85       41.78       
H           169.35      34.43       -139.41     
