125

C           -4.346      -0.57894    0.09069     
C           -5.14176    -1.55106    0.63464     
S           -5.32948    0.73006     -0.61445    
C           -11.25106   -1.32497    0.60899     
C           -10.61026   -0.22649    -0.00737    
C           -11.35209   0.81823     -0.57427    
C           -12.73835   0.74768     -0.51541    
C           -13.37906   -0.35057    0.10124     
C           -12.63725   -1.39538    0.66806     
C           -13.76223   1.747       -1.05382    
C           -15.0766    1.07135     -0.66134    
C           -14.82704   -0.15528    0.01432     
C           -10.22716   -2.32485    1.14633     
C           -8.91278    -1.6491     0.75396     
C           -9.1623     -0.42191    0.07941     
C           -16.36662   1.50809     -0.88422    
C           -17.44436   0.71573     -0.42839    
C           -17.17272   -0.50702    0.24043     
C           -15.87012   -0.95605    0.47237     
C           -7.62286    -2.08655    0.97581     
C           -6.54482    -1.29444    0.52018     
C           -6.81644    -0.06992    -0.14622    
C           -8.11907    0.37917     -0.3777     
C           -13.64461   1.901       -2.58699    
C           -13.6136    3.1264      -0.37311    
C           -10.37632   -3.70364    0.46446     
C           -10.34435   -2.48012    2.67938     
H           -13.13633   -2.2382     1.14119     
H           -10.85301   1.66092     -1.04758    
H           -7.42026    -3.02461    1.48722     
H           -8.30726    1.3175      -0.89176    
H           -16.56964   2.44505     -1.39741    
H           -15.68174   -1.89365    0.9877      
H           -13.53385   0.82125     -2.68695    
H           -13.75536   2.98074     -2.48704    
C           -13.52823   2.05337     -4.10392    
H           -12.95901   2.68501     0.37841     
H           -14.26819   3.5678      -1.12463    
C           -13.46654   4.49118     0.30039     
H           -9.701      -3.3591     2.63953     
H           -10.98771   -1.60114    2.71922     
C           -10.46031   -2.63374    4.19621     
H           -10.2504    -4.19451    1.4295      
H           -10.50223   -3.21277    -0.50057    
C           -10.52388   -5.0678     -0.21017    
H           -19.25036   1.86335     -1.00388    
H           -4.74093    -2.44162    1.09692     
S           -18.65944   -1.30608    0.71052     
C           -18.84762   0.97195     -0.54424    
C           -19.64388   0.0         -0.0        
C           0.0         0.0         0.0         
C           -0.56164    -1.29082    0.01065     
C           -0.94521    1.05517     0.01358     
C           0.10748     -2.62924    -0.10043    
N           -0.9223     -3.57077    -0.15468    
C           -2.18412    -2.98979    -0.04769    
C           -0.71121    -5.00343    -0.25161    
O           -3.21466    -3.63868    -0.03412    
O           1.2889      -2.92086    -0.13993    
H           -2.9644     1.70582     0.08146     
H           -0.58568    2.07908     0.03253     
H           -1.1669     -5.39432    -1.16594    
H           -1.15883    -5.51205    0.60714     
H           0.36565     -5.17475    -0.27001    
C           -2.30965    0.84102     0.04191     
C           -1.95589    -1.50954    0.041       
C           -2.88555    -0.45306    0.06065     
C           -13.41185   2.20574     -5.62085    
C           -13.29547   2.3581      -7.13779    
C           -13.1791    2.51047     -8.65472    
C           -13.06272   2.66284     -10.17165   
C           -12.94634   2.81521     -11.68858   
C           -12.82996   2.96758     -13.20551   
C           -12.71358   3.11995     -14.72245   
C           -12.5972    3.27232     -16.23938   
C           -12.48083   3.42468     -17.75631   
C           -12.36445   3.57705     -19.27324   
C           -12.24807   3.72942     -20.79017   
C           -12.13169   3.88179     -22.30711   
C           -12.01531   4.03416     -23.82403   
C           -11.89894   4.18652     -25.34096   
C           -10.67146   -6.43196    -0.8848     
C           -10.81903   -7.79613    -1.55943    
C           -10.9666    -9.16028    -2.23406    
C           -11.11416   -10.52444   -2.90869    
C           -11.26173   -11.88861   -3.58332    
C           -11.40931   -13.25277   -4.25796    
C           -11.55688   -14.61694   -4.93259    
C           -11.70444   -15.98109   -5.60722    
C           -11.85201   -17.34525   -6.28185    
C           -11.99959   -18.70941   -6.95648    
C           -12.14716   -20.07358   -7.63112    
C           -12.29472   -21.43774   -8.30575    
C           -12.44229   -22.8019    -8.98038    
C           -12.58986   -24.16606   -9.65501    
C           -13.31949   5.85596     0.97389     
C           -13.17244   7.22073     1.64739     
C           -13.02538   8.58552     2.32088     
C           -12.87833   9.95029     2.99438     
C           -12.73127   11.31507    3.66787     
C           -12.58422   12.67985    4.34137     
C           -12.43716   14.04463    5.01486     
C           -12.29012   15.4094     5.68837     
C           -12.14306   16.77418    6.36186     
C           -11.99601   18.13896    7.03536     
C           -11.84895   19.50374    7.70885     
C           -11.7019    20.86851    8.38235     
C           -11.55484   22.23329    9.05584     
C           -11.40778   23.59807    9.72934     
C           -10.57626   -2.78737    5.71305     
C           -10.69221   -2.941      7.22989     
C           -10.80816   -3.09462    8.74673     
C           -10.92411   -3.24825    10.26356    
C           -11.04007   -3.40187    11.7804     
C           -11.15602   -3.5555     13.29724    
C           -11.27197   -3.70912    14.81408    
C           -11.38792   -3.86275    16.33091    
C           -11.50388   -4.01638    17.84775    
C           -11.61983   -4.17       19.36459    
C           -11.73578   -4.32363    20.88142    
C           -11.85173   -4.47725    22.39826    
C           -11.96768   -4.63088    23.9151     
C           -12.08364   -4.7845     25.43194    
H           -20.73388   0.0         -0.0        
H           1.09        0.0         0.0         
