512

C           31.57       12.43       18.59       
C           31.1        13.67       19.06       
C           31.17       12.14       17.34       
C           30.3        12.9        16.58       
C           29.72       14.09       17.01       
C           30.19       14.51       18.34       
N           29.82       12.48       15.31       
C           29.08       13.49       14.8        
C           29.08       14.66       15.86       
O           28.61       13.4        13.7        
C           30.17       11.3        14.51       
C           28.47       15.91       15.71       
C           28.36       16.8        14.48       
C           27.75       17.99       14.85       
N           27.6        17.99       16.29       
C           27.97       16.77       16.86       
C           28.73       16.56       13.12       
O           27.87       16.55       18.07       
C           26.9        18.95       17.11       
H           29.8        15.39       18.84       
H           31.51       11.21       16.93       
H           31.5        14.05       19.97       
H           27.01       19.89       14.13       
H           29.07       15.58       12.78       
H           28.65       17.28       11.17       
H           30.52       10.49       15.2        
H           29.22       11.03       14.09       
H           30.91497    11.51583    13.74414    
H           26.13       19.42       16.56       
H           27.51252    19.7477     17.53022    
H           26.24       18.47       17.94       
C           28.42       17.52       12.2        
C           27.54       19.0        13.89       
C           27.8        18.71       12.51       
C           36.05       7.03        21.82       
S           35.78       7.43        20.11       
C           35.43       7.85        22.69       
C           34.65       8.9         22.07       
C           34.81       8.76        20.68       
N           33.81       10.03       22.26       
C           33.48       10.52       21.07       
C           34.05       9.75        20.07       
C           33.6        10.67       23.59       
H           32.59       11.01       23.74       
H           34.2        11.57       23.67       
H           33.75119    9.98605     24.42514    
H           32.03       12.18       21.3        
H           35.52       7.69        23.77       
C           32.65       11.57       20.69       
S           33.7        10.46       18.54       
C           32.52       11.57       19.35       
C           42.69       -1.94       23.52       
C           41.86       -1.51       24.54       
C           42.4        -1.43       22.23       
C           41.55       -0.37       22.09       
C           40.72       0.2         23.18       
C           40.88       -0.45       24.42       
N           41.21       0.25        20.92       
C           40.39       1.35        21.11       
C           39.94       1.31        22.58       
O           40.03       2.01        20.2        
C           41.51       -0.29       19.6        
C           39.02       2.24        23.09       
C           38.58       3.57        22.65       
C           37.59       4.07        23.56       
N           37.62       3.24        24.72       
C           38.46       2.13        24.51       
C           38.79       4.42        21.55       
O           38.42       1.2         25.27       
C           36.98       3.47        26.01       
H           40.41       -0.18       25.3        
H           42.94       -1.85       21.37       
H           41.91       -1.84       25.55       
H           36.13       5.58        24.19       
H           39.43       4.2         20.72       
H           38.18       6.09        20.38       
H           41.75       0.53        19.01       
H           42.41       -0.92       19.65       
H           40.71415    -0.92805    19.2158     
H           37.16       4.5         26.27       
H           35.89301    3.44869     25.93185    
H           37.35       2.72        26.77       
C           37.97       5.55        21.3        
C           36.85       5.3         23.45       
C           36.96       5.94        22.17       
C           49.05       -6.36       23.93       
S           48.54       -5.16       22.69       
C           48.16       -6.41       24.92       
C           47.04       -5.54       24.8        
C           47.05       -4.87       23.51       
N           45.83       -5.28       25.42       
C           45.21       -4.34       24.67       
C           45.84       -4.14       23.38       
C           45.47       -5.46       26.84       
H           44.39       -5.37       26.92       
H           45.9        -4.68       27.48       
H           45.73771    -6.48021    27.11495    
H           43.41       -3.63       25.71       
H           48.27       -7.06       25.8        
C           44.07       -3.49       24.89       
S           44.95       -2.98       22.42       
C           43.8        -2.79       23.73       
C           59.54       -10.2       21.99       
C           58.76       -10.78      23.01       
C           58.98       -9.11       21.32       
C           57.68       -8.65       21.62       
C           56.81       -9.25       22.59       
C           57.44       -10.34      23.3        
N           57.0        -7.68       20.97       
C           55.71       -7.46       21.52       
C           55.5        -8.53       22.62       
O           54.95       -6.66       21.01       
C           57.61       -6.62       20.21       
C           54.35       -8.57       23.44       
C           53.02       -7.84       23.39       
C           52.36       -8.01       24.64       
N           53.13       -8.91       25.43       
C           54.32       -9.12       24.84       
C           52.33       -7.13       22.39       
O           55.2        -9.81       25.34       
C           52.91       -9.18       26.85       
H           56.96       -10.96      24.02       
H           59.54       -8.65       20.51       
H           59.11       -11.61      23.57       
H           50.53       -7.57       25.83       
H           52.72       -7.01       21.42       
H           50.63       -6.1        21.8        
H           58.63       -6.8        20.09       
H           57.2        -6.54       19.19       
H           57.61706    -5.68785    20.77494    
H           52.48       -8.29       27.29       
H           52.27305    -10.04093   27.05298    
H           53.83       -9.43       27.39       
C           51.08       -6.62       22.64       
C           51.08       -7.46       24.89       
C           50.42       -6.9        23.81       
C           66.55       -13.53      21.3        
S           64.94       -14.23      21.65       
C           66.45       -12.28      20.85       
C           65.12       -11.74      21.01       
C           64.23       -12.69      21.54       
N           64.43       -10.57      20.81       
C           63.1        -10.73      21.2        
C           63.01       -12.04      21.65       
C           64.99       -9.29       20.51       
H           64.14       -8.6        20.39       
H           65.56       -9.23       19.58       
H           65.50465    -8.92836    21.4002     
H           61.68       -8.91       21.08       
H           67.23       -11.74      20.28       
C           61.82       -9.94       21.26       
S           61.35       -12.34      22.17       
C           60.86       -10.67      21.82       
C           75.41       -19.82      19.43       
C           75.49       -18.39      19.46       
C           74.16       -20.48      19.54       
C           73.11       -19.64      19.74       
C           73.17       -18.21      19.9        
C           74.38       -17.62      19.73       
N           71.77       -20.05      19.84       
C           70.98       -18.97      20.12       
C           71.82       -17.72      20.23       
O           69.78       -19.15      20.3        
C           71.21       -21.2       19.08       
C           71.34       -16.48      20.6        
C           69.98       -15.87      20.5        
C           70.13       -14.56      20.96       
N           71.45       -14.23      21.35       
C           72.23       -15.41      21.22       
C           68.68       -16.32      20.16       
O           73.4        -15.42      21.46       
C           72.03       -12.97      21.77       
H           74.43       -16.52      19.74       
H           74.11       -21.59      19.51       
H           76.45       -17.88      19.28       
H           68.96       -12.85      21.6        
H           68.49       -17.3       19.78       
H           66.6        -15.93      20.09       
H           71.88       -22.09      19.21       
H           70.23       -21.56      19.48       
H           71.09473    -20.96945   18.02092    
H           72.96       -13.08      22.3        
H           72.08729    -12.31119   20.90352    
H           71.3        -12.6       22.41       
C           67.57       -15.55      20.38       
C           68.98       -13.82      21.15       
C           67.69       -14.43      21.14       
C           82.11       -23.16      21.0        
S           81.54       -21.52      21.33       
C           81.25       -23.96      20.35       
C           80.04       -23.22      20.09       
C           80.08       -21.89      20.4        
N           78.88       -23.47      19.31       
C           78.15       -22.28      19.33       
C           78.87       -21.28      19.98       
C           78.66       -24.61      18.42       
H           77.73       -24.39      17.91       
H           78.65       -25.56      18.99       
H           79.49242    -24.68367   17.72018    
H           76.12       -22.38      18.46       
H           81.61       -24.93      19.93       
C           76.87       -21.81      18.94       
S           78.02       -19.84      20.32       
C           76.65       -20.54      19.44       
C           91.7        -25.53      26.72       
C           91.16       -24.27      26.48       
C           90.94       -26.62      26.19       
C           89.79       -26.39      25.39       
C           89.28       -25.04      25.08       
C           90.01       -24.0       25.65       
N           88.96       -27.31      24.8        
C           87.9        -26.69      24.04       
C           88.06       -25.16      24.17       
O           87.03       -27.38      23.54       
C           89.13       -28.78      24.74       
C           87.22       -24.21      23.63       
C           85.84       -24.23      22.96       
C           85.54       -22.87      22.52       
N           86.52       -22.03      22.88       
C           87.54       -22.73      23.52       
C           84.97       -25.27      22.54       
O           88.49       -22.05      23.94       
C           86.6        -20.57      22.7        
H           89.7        -23.0       25.53       
H           91.28       -27.62      26.42       
H           91.64       -23.42      26.98       
H           84.12       -21.52      21.61       
H           85.2        -26.3       22.77       
H           83.04       -25.66      21.56       
H           90.14       -29.11      24.93       
H           88.8        -29.15      23.78       
H           88.54366    -29.23048   25.54086    
H           86.14       -20.21      21.76       
H           86.26668    -19.96133   23.54055    
H           87.65       -20.29      22.65       
C           83.78       -24.93      21.83       
C           84.39       -22.54      21.84       
C           83.46       -23.53      21.54       
C           98.43       -27.2       30.49       
S           97.52       -28.16      29.32       
C           97.82       -26.04      30.71       
C           96.61       -25.87      30.03       
C           96.3        -26.94      29.18       
N           95.64       -24.91      29.93       
C           94.7        -25.35      28.96       
C           95.06       -26.6       28.56       
C           95.62       -23.56      30.44       
H           96.64       -23.11      30.29       
H           94.92       -22.96      29.94       
H           95.35746    -23.5375    31.49767    
H           93.02       -23.9       28.71       
H           98.27       -25.34      31.35       
C           93.48       -24.84      28.43       
S           93.81       -27.21      27.46       
C           92.95       -25.66      27.48       
C           108.73      -31.34      32.42       
C           108.14      -31.34      31.18       
C           108.03      -30.64      33.43       
C           106.81      -30.19      33.21       
C           106.16      -30.14      31.96       
C           106.89      -30.75      30.92       
N           106.02      -29.53      34.15       
C           104.8       -29.14      33.6        
C           104.87      -29.38      32.14       
O           103.78      -28.75      34.24       
C           106.39      -29.15      35.5        
C           103.94      -28.88      31.25       
C           102.51      -28.3       31.3        
C           101.98      -28.33      29.98       
N           102.99      -28.58      29.11       
C           104.2       -28.91      29.79       
C           101.6       -27.95      32.28       
O           105.24      -29.14      29.15       
C           102.93      -28.76      27.66       
H           106.54      -30.79      29.9        
H           108.41      -30.73      34.47       
H           108.62      -31.78      30.32       
H           100.31      -27.92      28.67       
H           101.85      -27.95      33.28       
H           99.67       -27.26      32.83       
H           106.68      -30.01      36.06       
H           105.51      -28.81      36.02       
H           107.13223   -28.35175   35.5        
H           101.9       -28.94      27.33       
H           103.41677   -27.96542   27.09449    
H           103.45      -29.59      27.35       
C           100.3       -27.6       32.01       
C           100.67      -27.96      29.71       
C           99.81       -27.56      30.75       
C           113.98      -36.39      35.17       
S           113.1       -35.07      36.06       
C           113.93      -36.25      33.8        
C           112.97      -35.25      33.45       
C           112.42      -34.5       34.55       
N           112.42      -34.8       32.25       
C           111.56      -33.84      32.58       
C           111.51      -33.66      33.92       
C           112.68      -35.32      30.88       
H           112.27      -36.33      30.89       
H           112.18      -34.82      30.08       
H           113.73642   -35.34113   30.61237    
H           110.39      -33.1       30.89       
H           114.43      -36.85      33.11       
C           110.64      -32.98      31.9        
S           110.38      -32.45      34.35       
C           109.94      -32.15      32.68       
C           119.03      -44.93      40.94       
C           119.57      -44.54      39.69       
C           117.85      -44.31      41.41       
C           117.22      -43.36      40.54       
C           117.74      -42.9       39.33       
C           118.98      -43.49      38.97       
N           115.94      -42.88      40.77       
C           115.65      -41.85      39.91       
C           116.79      -41.76      38.92       
O           114.54      -41.27      40.01       
C           115.03      -43.17      41.86       
C           116.81      -40.77      37.93       
C           115.91      -39.63      37.47       
C           116.53      -39.03      36.35       
N           117.78      -39.63      36.03       
C           117.95      -40.62      36.95       
C           114.62      -39.05      37.77       
O           119.07      -41.06      36.99       
C           118.63      -39.27      34.93       
H           119.5       -43.27      38.01       
H           117.46      -44.58      42.38       
H           120.43      -45.1       39.23       
H           116.37      -37.58      34.67       
H           114.13      -39.44      38.62       
H           113.09      -37.57      37.38       
H           114.3       -42.36      42.12       
H           115.54      -43.29      42.85       
H           114.56851   -44.14346   41.69415    
H           119.68      -39.52      35.13       
H           118.30122   -39.75221   34.00942    
H           118.73      -38.18      34.81       
C           114.05      -38.03      37.01       
C           115.91      -38.02      35.56       
C           114.69      -37.51      35.9        
C           121.03      -51.5       44.87       
S           119.83      -50.27      45.27       
C           121.83      -51.1       43.85       
C           121.52      -49.84      43.35       
C           120.41      -49.24      43.97       
N           121.77      -49.05      42.2        
C           120.91      -47.98      42.14       
C           120.03      -48.06      43.18       
C           122.78      -49.42      41.12       
H           122.74      -48.78      40.24       
H           122.54      -50.46      40.88       
H           123.78837   -49.35654   41.52899    
H           121.44      -46.58      40.44       
H           122.55      -51.74      43.48       
C           120.75      -46.8       41.27       
S           118.93      -46.73      43.12       
C           119.64      -46.04      41.67       
C           121.41      -59.87      52.33       
C           120.6       -58.81      52.46       
C           121.95      -60.09      51.03       
C           121.68      -59.16      50.02       
C           120.85      -58.0       50.17       
C           120.36      -57.83      51.46       
N           122.11      -59.22      48.66       
C           121.79      -58.06      47.95       
C           120.97      -57.25      48.88       
O           121.96      -57.94      46.74       
C           122.76      -60.32      48.03       
C           120.49      -55.95      48.46       
C           120.79      -54.98      47.36       
C           119.88      -53.93      47.41       
N           118.97      -54.23      48.41       
C           119.28      -55.32      49.16       
C           121.77      -54.91      46.37       
O           118.55      -55.68      50.03       
C           117.61      -53.77      48.24       
H           119.77      -56.97      51.59       
H           122.75      -60.79      50.88       
H           120.02      -58.7       53.39       
H           119.09      -52.08      46.67       
H           122.52      -55.68      46.31       
H           122.64      -53.85      44.78       
H           122.11      -60.62      47.19       
H           122.81      -61.19      48.69       
H           123.79389   -60.10609   47.75905    
H           117.27      -53.88      47.24       
H           117.40096   -52.76805   48.61483    
H           116.95      -54.45      48.78       
C           121.87      -53.83      45.51       
C           119.87      -52.84      46.58       
C           120.9       -52.74      45.64       
C           120.46      -65.5       57.67       
S           119.42      -64.21      57.01       
C           121.7       -65.35      57.07       
C           121.85      -64.17      56.3        
C           120.72      -63.46      56.11       
N           122.91      -63.52      55.53       
C           122.27      -62.49      54.84       
C           120.95      -62.38      55.22       
C           124.18      -64.13      55.14       
H           124.87      -63.33      55.01       
H           124.09      -64.7       54.21       
H           124.66856   -64.72477   55.91179    
H           123.54      -61.51      53.21       
H           122.5       -66.05      57.21       
C           122.61      -61.6       53.71       
S           120.16      -61.06      54.49       
C           121.51      -60.88      53.38       
C           115.46      -74.22      62.25       
C           116.54      -74.39      61.43       
C           114.82      -73.0       62.33       
C           115.47      -71.9       61.87       
C           116.73      -72.0       61.21       
C           117.17      -73.3       60.93       
N           115.11      -70.61      61.96       
C           116.08      -69.72      61.46       
C           117.24      -70.63      61.03       
O           115.95      -68.5       61.47       
C           113.83      -70.03      62.42       
C           118.37      -70.03      60.55       
C           118.63      -68.78      59.77       
C           119.97      -68.69      59.52       
N           120.64      -69.81      60.17       
C           119.72      -70.63      60.85       
C           117.85      -67.71      59.15       
O           120.06      -71.69      61.46       
C           122.03      -70.05      60.27       
H           118.17      -73.43      60.53       
H           113.87      -72.89      62.78       
H           116.97      -75.32      61.19       
H           121.67      -67.59      58.77       
H           116.77      -67.69      59.17       
H           117.87      -65.86      58.1        
H           113.37      -70.68      63.16       
H           114.06      -69.15      62.94       
H           113.16559   -69.83209   61.57888    
H           122.23      -70.36      61.3        
H           122.30387   -70.78513   59.51325    
H           122.55      -69.1       60.13       
C           118.47      -66.7       58.43       
C           120.62      -67.66      58.9        
C           119.86      -66.6       58.37       
C           110.33      -79.7       63.82       
S           110.42      -78.16      64.59       
C           111.35      -80.15      63.08       
C           112.27      -79.1       63.04       
C           111.87      -77.93      63.67       
N           113.47      -78.92      62.41       
C           113.82      -77.59      62.62       
C           112.88      -76.97      63.47       
C           114.2       -79.78      61.54       
H           115.05      -79.2       61.17       
H           113.63      -80.07      60.67       
H           114.65537   -80.604     62.08933    
H           115.63      -76.96      61.39       
H           111.39      -81.17      62.65       
C           114.85      -76.7       62.17       
S           113.41      -75.39      63.84       
C           114.72      -75.4       62.7        
C           100.83      -85.09      66.35       
C           100.96      -83.82      65.89       
C           102.05      -85.79      66.5        
C           103.28      -85.25      66.08       
C           103.39      -83.93      65.52       
C           102.15      -83.24      65.49       
N           104.52      -85.83      66.08       
C           105.47      -85.01      65.52       
C           104.79      -83.61      65.3        
O           106.57      -85.39      65.32       
C           104.85      -86.71      67.15       
C           105.47      -82.4       65.13       
C           106.77      -81.93      64.65       
C           106.73      -80.52      64.61       
N           105.56      -80.07      65.09       
C           104.76      -81.13      65.42       
C           107.93      -82.63      64.36       
O           103.82      -81.0       66.26       
C           105.32      -78.67      65.44       
H           102.16      -82.19      65.07       
H           102.07      -86.79      66.89       
H           100.05      -83.2       65.77       
H           107.86      -78.64      64.24       
H           107.96      -83.66      64.4        
H           110.13      -82.28      64.02       
H           103.9       -87.01      67.74       
H           105.25      -87.57      66.68       
H           105.59602   -86.30113   67.83146    
H           106.24      -78.13      65.58       
H           104.79082   -78.17474   64.62588    
H           104.78      -78.64      66.43       
C           109.13      -81.82      64.09       
C           107.9       -79.75      64.2        
C           109.1       -80.45      64.01       
C           94.34       -88.87      68.67       
S           96.06       -89.14      69.05       
C           94.21       -87.86      67.74       
C           95.41       -87.25      67.29       
C           96.5        -87.87      67.9        
N           95.86       -86.27      66.36       
C           97.28       -86.25      66.5        
C           97.71       -87.25      67.37       
C           95.1        -85.08      66.06       
H           95.56       -84.52      65.21       
H           95.02       -84.45      66.95       
H           94.07413    -85.32563   65.78547    
H           98.14       -84.43      65.49       
H           93.19       -87.58      67.45       
C           98.32       -85.32      66.1        
S           99.45       -87.11      67.58       
C           99.53       -85.7       66.66       
H           27.26       19.12       11.66       
H           93.46       -89.23      69.18       
