512

C           36.15       12.74       8.49        
C           35.9        14.09       8.25        
C           35.59       11.73       7.69        
C           34.75       12.16       6.65        
C           34.46       13.53       6.43        
C           35.06       14.47       7.25        
N           33.91       11.33       5.94        
C           33.16       12.17       5.09        
C           33.48       13.6        5.33        
O           32.53       11.72       4.15        
C           33.54       9.94        6.35        
C           32.86       14.67       4.64        
C           31.66       14.79       3.79        
C           31.61       16.13       3.26        
N           32.73       16.8        3.71        
C           33.47       16.12       4.57        
C           30.67       13.91       3.33        
O           34.51       16.6        5.05        
C           33.12       18.21       3.36        
H           34.87       15.53       7.28        
H           35.86       10.74       7.84        
H           36.31       14.85       8.86        
H           30.69       17.52       2.06        
H           30.66       12.9        3.63        
H           28.87       13.72       2.15        
H           33.93       9.27        5.55        
H           33.93       9.75        7.32        
H           32.45997    9.79306     6.34265     
H           32.18       18.8        3.39        
H           33.7078     18.30681    2.44719     
H           33.57       18.71       4.28        
C           29.66       14.41       2.53        
C           30.6        16.55       2.42        
C           29.61       15.72       2.04        
C           40.25       9.84        14.34       
S           39.15       9.09        13.28       
C           40.45       11.17       14.12       
C           39.56       11.57       13.08       
C           38.81       10.56       12.46       
N           39.39       12.79       12.39       
C           38.47       12.5        11.36       
C           38.09       11.12       11.4        
C           40.22       14.01       12.52       
H           39.68       14.81       11.93       
H           41.2        13.94       12.03       
H           40.35566    14.34558    13.54815    
H           37.87       14.25       10.15       
H           41.2        11.75       14.63       
C           37.86       13.15       10.29       
S           37.0        10.68       10.17       
C           37.06       12.33       9.56        
C           45.57       1.68        20.29       
C           44.23       1.97        20.61       
C           46.24       2.58        19.41       
C           45.61       3.64        18.88       
C           44.25       3.93        19.09       
C           43.57       3.07        20.0        
N           46.17       4.64        18.08       
C           45.2        5.47        17.67       
C           43.84       5.13        18.28       
O           45.37       6.18        16.69       
C           47.55       4.64        17.6        
C           42.6        5.72        17.92       
C           42.22       6.91        17.02       
C           40.78       7.04        17.02       
N           40.21       6.06        17.83       
C           41.21       5.2         18.34       
C           42.88       7.8         16.19       
O           40.89       4.23        19.0        
C           38.86       5.66        17.88       
H           42.58       3.22        20.28       
H           47.25       2.34        19.17       
H           43.69       1.28        21.3        
H           39.08       8.08        16.17       
H           43.91       7.84        16.14       
H           42.8        9.43        14.71       
H           48.02       5.62        17.67       
H           48.2        3.89        18.12       
H           47.59382    4.24561     16.5848     
H           38.79       4.65        18.32       
H           38.34735    6.29734     18.60048    
H           38.42       5.73        16.87       
C           42.23       8.83        15.4        
C           40.15       7.99        16.17       
C           40.87       8.94        15.32       
C           50.69       -3.61       23.08       
S           50.85       -2.4        21.87       
C           49.35       -3.73       23.41       
C           48.53       -2.7        22.87       
C           49.18       -1.94       21.9        
N           47.17       -2.35       22.92       
C           46.95       -1.29       22.01       
C           48.24       -0.99       21.42       
C           46.2        -2.91       23.76       
H           45.25       -2.31       23.72       
H           46.36       -2.72       24.86       
H           46.04146    -3.95493    23.49336    
H           44.9        -0.46       22.13       
H           49.02       -4.37       24.2        
C           45.88       -0.42       21.66       
S           48.0        0.32        20.4        
C           46.29       0.48        20.76       
C           59.34       -10.17      26.05       
C           58.5        -9.58       26.94       
C           59.17       -9.85       24.72       
C           58.1        -9.1        24.4        
C           57.11       -8.57       25.29       
C           57.4        -8.85       26.63       
N           57.83       -8.67       23.11       
C           56.81       -7.7        23.09       
C           56.12       -7.78       24.51       
O           56.47       -7.17       21.99       
C           58.13       -9.45       21.92       
C           54.96       -7.17       24.88       
C           54.03       -6.19       24.26       
C           52.92       -5.95       25.15       
N           53.14       -6.67       26.31       
C           54.28       -7.45       26.22       
C           53.94       -5.56       22.99       
O           54.52       -8.32       26.99       
C           52.29       -6.87       27.44       
H           56.79       -8.44       27.4        
H           59.87       -10.23      23.92       
H           58.64       -9.81       28.01       
H           51.0        -4.98       25.45       
H           54.62       -5.79       22.2        
H           53.01       -4.13       21.71       
H           58.09       -8.82       21.0        
H           59.18       -9.77       21.88       
H           57.48824    -10.3153    21.75415    
H           51.98       -5.92       27.84       
H           51.36987    -7.42787    27.26612    
H           52.78       -7.3        28.3        
C           52.93       -4.65       22.67       
C           51.9        -5.12       24.78       
C           51.84       -4.44       23.56       
C           66.07       -13.79      27.74       
S           65.54       -13.08      26.24       
C           65.11       -13.66      28.74       
C           63.92       -12.97      28.31       
C           64.05       -12.54      26.99       
N           62.67       -12.57      28.8        
C           62.03       -11.85      27.81       
C           62.82       -11.88      26.66       
C           62.18       -12.62      30.21       
H           61.08       -12.49      30.24       
H           62.43       -11.66      30.73       
H           62.4786     -13.55311   30.68775    
H           59.99       -11.51      28.47       
H           65.14       -14.03      29.71       
C           60.76       -11.46      27.71       
S           61.91       -11.13      25.36       
C           60.52       -10.93      26.42       
C           76.08       -18.51      28.53       
C           75.42       -18.22      29.76       
C           75.34       -18.67      27.35       
C           73.96       -18.4       27.33       
C           73.3        -17.9       28.5        
C           74.08       -17.83      29.7        
N           73.13       -18.46      26.2        
C           71.86       -18.01      26.64       
C           71.97       -17.34      28.02       
O           70.84       -18.16      25.93       
C           73.42       -18.79      24.81       
C           70.93       -16.75      28.61       
C           69.7        -16.12      28.1        
C           68.94       -15.67      29.23       
N           69.5        -16.15      30.41       
C           70.71       -16.76      30.15       
C           69.19       -15.67      26.87       
O           71.43       -17.05      31.15       
C           69.03       -15.8       31.72       
H           73.56       -17.4       30.58       
H           75.8        -19.02      26.42       
H           75.99       -18.13      30.74       
H           67.17       -14.57      29.97       
H           69.67       -15.87      25.98       
H           67.79       -14.44      25.79       
H           74.49       -18.55      24.57       
H           73.28       -19.88      24.68       
H           72.93174    -18.1725    24.05608    
H           68.68       -14.79      31.82       
H           68.30188    -16.50039   32.12914    
H           69.88       -15.68      32.41       
C           68.06       -14.8       26.79       
C           67.73       -14.86      29.11       
C           67.32       -14.42      27.88       
C           83.75       -20.17      29.8        
S           82.39       -19.66      30.83       
C           83.28       -20.34      28.53       
C           81.87       -20.08      28.37       
C           81.22       -19.74      29.53       
N           80.95       -19.87      27.29       
C           79.69       -19.56      27.93       
C           79.8        -19.6       29.31       
C           81.01       -20.02      25.81       
H           80.51       -19.17      25.41       
H           80.53       -20.97      25.49       
H           82.04787    -20.08532   25.4834     
H           78.05       -18.97      26.47       
H           83.85       -20.69      27.65       
C           78.35       -19.17      27.46       
S           78.25       -19.27      29.97       
C           77.48       -18.97      28.46       
C           93.56       -23.47      34.46       
C           93.2        -22.13      34.51       
C           92.67       -24.39      33.9        
C           91.47       -23.89      33.43       
C           91.0        -22.51      33.54       
C           91.94       -21.65      34.14       
N           90.54       -24.68      32.83       
C           89.47       -23.83      32.41       
C           89.64       -22.38      32.86       
O           88.48       -24.31      31.85       
C           90.62       -26.17      32.52       
C           88.69       -21.38      32.61       
C           87.47       -21.3       31.74       
C           86.68       -20.22      32.16       
N           87.38       -19.55      33.13       
C           88.59       -20.09      33.42       
C           86.98       -22.02      30.63       
O           89.35       -19.67      34.23       
C           86.91       -18.5       33.92       
H           91.64       -20.64      34.38       
H           92.89       -25.39      33.68       
H           93.81       -21.46      35.08       
H           84.77       -19.06      32.08       
H           87.6        -22.8       30.22       
H           85.51       -21.88      28.98       
H           91.52       -26.44      32.02       
H           89.86       -26.47      31.85       
H           90.45341    -26.64896   33.48486    
H           87.1        -18.68      35.01       
H           87.16403    -17.49799   33.57424    
H           85.81       -18.45      33.86       
C           85.83       -21.48      29.93       
C           85.43       -19.87      31.66       
C           85.04       -20.46      30.44       
C           100.84      -26.43      35.07       
S           99.32       -27.22      34.76       
C           100.68      -25.16      35.54       
C           99.33       -24.7       35.42       
C           98.4        -25.8       35.0        
N           98.54       -23.53      35.66       
C           97.21       -23.79      35.3        
C           97.08       -25.15      35.05       
C           98.94       -22.18      36.1        
H           98.7        -21.48      35.3        
H           98.43       -21.93      37.02       
H           100.00316   -22.20893   36.33867    
H           95.82       -22.08      35.28       
H           101.55      -24.59      35.95       
C           95.96       -23.12      35.2        
S           95.42       -25.55      34.72       
C           94.88       -23.9       34.91       
C           109.07      -33.99      34.57       
C           108.91      -32.96      33.68       
C           108.01      -34.15      35.46       
C           107.05      -33.15      35.61       
C           106.96      -32.04      34.8        
C           107.88      -32.03      33.69       
N           106.04      -33.06      36.51       
C           105.26      -31.95      36.37       
C           105.87      -31.19      35.23       
O           104.35      -31.76      37.05       
C           105.93      -34.02      37.6        
C           105.36      -29.97      34.78       
C           104.12      -29.24      35.04       
C           104.23      -27.97      34.53       
N           105.38      -27.86      33.86       
C           106.16      -28.98      33.92       
C           102.86      -29.54      35.57       
O           107.28      -29.03      33.33       
C           106.01      -26.59      33.42       
H           107.74      -31.37      32.87       
H           107.93      -35.06      36.06       
H           109.69      -32.71      33.0        
H           103.44      -25.97      34.22       
H           102.72      -30.53      35.97       
H           100.85      -28.97      35.93       
H           105.98      -35.01      37.16       
H           104.97      -34.01      38.07       
H           106.7069    -33.86739   38.34916    
H           105.33      -25.99      32.8        
H           106.30836   -25.91002   34.21794    
H           106.91      -26.76      32.79       
C           101.81      -28.61      35.61       
C           103.24      -26.98      34.6        
C           102.0       -27.31      35.12       
C           114.17      -39.89      35.02       
S           112.76      -39.49      36.0        
C           114.23      -39.02      33.98       
C           113.32      -37.89      34.08       
C           112.51      -38.0       35.19       
N           113.06      -36.76      33.35       
C           111.94      -36.17      33.94       
C           111.66      -36.85      35.17       
C           113.73      -36.44      32.17       
H           113.3       -35.51      31.77       
H           114.78      -36.39      32.32       
H           113.50855   -37.15436   31.37706    
H           111.25      -34.4       32.78       
H           114.95      -39.07      33.19       
C           111.18      -34.98      33.68       
S           110.35      -36.04      35.96       
C           110.18      -34.85      34.63       
C           119.38      -49.14      38.79       
C           119.8       -48.51      37.66       
C           118.31      -48.61      39.4        
C           117.67      -47.43      38.92       
C           118.04      -46.81      37.73       
C           119.14      -47.44      37.04       
N           116.67      -46.71      39.51       
C           116.2       -45.72      38.65       
C           117.11      -45.69      37.39       
O           115.21      -45.1       38.94       
C           116.18      -46.93      40.81       
C           116.87      -44.76      36.38       
C           116.14      -43.45      36.3        
C           116.34      -42.99      34.99       
N           117.1       -43.85      34.26       
C           117.53      -44.91      35.02       
C           115.42      -42.7       37.17       
O           118.36      -45.73      34.7        
C           117.74      -43.47      32.97       
H           119.62      -46.94      36.22       
H           118.0       -49.08      40.37       
H           120.75      -48.73      37.21       
H           115.68      -41.65      33.48       
H           115.34      -42.98      38.19       
H           114.12      -40.95      37.39       
H           115.54      -46.06      41.06       
H           116.88      -47.09      41.63       
H           115.52267   -47.79938   40.82414    
H           118.75      -43.88      32.93       
H           117.25864   -43.9101    32.09667    
H           117.68      -42.39      32.81       
C           114.73      -41.56      36.73       
C           115.64      -41.87      34.48       
C           114.85      -41.1       35.4        
C           121.93      -55.8       42.0        
S           121.02      -54.53      42.67       
C           122.33      -55.56      40.74       
C           122.0       -54.16      40.34       
C           121.15      -53.54      41.24       
N           122.11      -53.42      39.19       
C           121.33      -52.26      39.45       
C           120.74      -52.29      40.71       
C           122.64      -53.86      37.91       
H           122.56      -52.92      37.35       
H           121.92      -54.59      37.46       
H           123.66488   -54.22087   37.99661    
H           121.41      -50.83      37.75       
H           122.9       -56.28      40.16       
C           120.96      -51.09      38.74       
S           119.77      -50.94      40.94       
C           120.05      -50.26      39.31       
C           121.37      -65.4       47.53       
C           120.63      -64.25      47.8        
C           122.38      -65.27      46.59       
C           122.69      -63.99      46.1        
C           121.96      -62.83      46.42       
C           120.84      -63.0       47.25       
N           123.62      -63.69      45.13       
C           123.7       -62.38      44.82       
C           122.61      -61.66      45.66       
O           124.53      -61.9       43.99       
C           124.21      -64.62      44.14       
C           122.32      -60.3       45.57       
C           122.48      -59.27      44.5        
C           121.95      -58.07      44.97       
N           121.43      -58.16      46.28       
C           121.67      -59.5       46.71       
C           122.91      -59.32      43.14       
O           121.35      -59.8       47.89       
C           120.26      -57.48      46.74       
H           120.25      -62.13      47.53       
H           122.98      -66.13      46.33       
H           119.86      -64.34      48.57       
H           121.61      -55.99      44.61       
H           123.29      -60.18      42.71       
H           122.85      -58.3       41.23       
H           124.18      -64.19      43.16       
H           123.62      -65.49      44.16       
H           125.21598   -64.97463   44.36436    
H           119.82      -56.97      45.82       
H           120.44885   -56.7386    47.51637    
H           119.58      -58.15      47.15       
C           122.69      -58.18      42.34       
C           121.88      -56.91      44.19       
C           122.23      -56.92      42.86       
C           118.69      -71.5       51.61       
S           118.03      -69.89      51.42       
C           119.78      -71.71      50.86       
C           120.14      -70.6       50.06       
C           119.3       -69.53      50.27       
N           121.29      -70.09      49.4        
C           120.99      -68.77      49.02       
C           119.75      -68.47      49.53       
C           122.42      -70.91      48.84       
H           123.06      -70.33      48.2        
H           121.95      -71.64      48.26       
H           123.03154   -71.32472   49.64133    
H           122.67      -67.89      47.96       
H           120.33      -72.63      50.98       
C           121.68      -67.79      48.31       
S           119.4       -66.78      49.08       
C           120.94      -66.62      48.22       
C           114.12      -77.3       60.26       
C           115.42      -77.63      59.81       
C           113.36      -76.39      59.55       
C           113.86      -75.77      58.32       
C           115.18      -76.07      57.85       
C           115.94      -76.99      58.68       
N           113.27      -74.85      57.51       
C           114.09      -74.55      56.47       
C           115.44      -75.19      56.69       
O           113.8       -73.7       55.62       
C           111.87      -74.53      57.58       
C           116.56      -74.86      55.9        
C           116.87      -73.92      54.85       
C           118.18      -74.08      54.36       
N           118.71      -75.17      55.06       
C           117.89      -75.63      56.03       
C           116.28      -72.76      54.24       
O           118.26      -76.47      56.79       
C           119.75      -75.96      54.49       
H           117.02      -77.17      58.54       
H           112.47      -76.1       59.94       
H           115.97      -78.56      60.18       
H           119.81      -73.48      53.18       
H           115.32      -72.39      54.57       
H           116.33      -71.18      52.86       
H           111.35      -74.88      56.69       
H           111.35      -74.99      58.45       
H           111.73115   -73.45391   57.68414    
H           120.14      -76.57      55.24       
H           119.49696   -76.6179    53.65859    
H           120.6       -75.37      54.16       
C           116.89      -72.07      53.21       
C           118.75      -73.32      53.35       
C           118.09      -72.33      52.67       
C           110.46      -79.96      66.71       
S           109.96      -78.82      65.43       
C           111.75      -80.38      66.49       
C           112.33      -79.87      65.25       
C           111.46      -79.1       64.53       
N           113.59      -79.94      64.64       
C           113.47      -79.11      63.49       
C           112.14      -78.75      63.38       
C           114.65      -80.91      64.89       
H           115.38      -80.91      63.97       
H           114.21      -81.97      64.88       
H           115.28987   -80.60398   65.71766    
H           115.39      -78.98      62.21       
H           112.24      -80.99      67.25       
C           114.31      -78.73      62.33       
S           111.95      -77.88      61.89       
C           113.63      -78.01      61.44       
C           103.79      -82.11      75.39       
C           103.55      -81.06      74.48       
C           104.85      -82.88      75.24       
C           105.75      -82.62      74.23       
C           105.52      -81.69      73.16       
C           104.42      -80.92      73.41       
N           106.89      -83.27      73.91       
C           107.52      -82.82      72.79       
C           106.55      -81.88      72.12       
O           108.58      -83.3       72.4        
C           107.61      -84.1       74.85       
C           106.72      -81.31      70.82       
C           107.88      -81.06      69.98       
C           107.45      -80.42      68.82       
N           106.09      -80.28      68.86       
C           105.56      -80.68      70.11       
C           109.29      -81.23      70.04       
O           104.39      -80.56      70.39       
C           105.4       -79.48      67.94       
H           104.19      -80.12      72.73       
H           105.06      -83.72      75.97       
H           102.73      -80.37      74.57       
H           107.77      -79.53      66.93       
H           109.66      -81.75      70.87       
H           111.2       -80.92      69.07       
H           108.58      -83.53      75.01       
H           107.13      -84.13      75.84       
H           107.84189   -85.09781   74.47758    
H           106.04      -78.74      67.54       
H           104.80817   -80.04296   67.21826    
H           104.65      -78.9       68.46       
C           110.09      -80.79      68.99       
C           108.25      -79.97      67.78       
C           109.62      -80.23      67.84       
C           99.19       -84.23      81.35       
S           100.79      -84.74      80.87       
C           98.71       -83.32      80.41       
C           99.64       -83.0       79.35       
C           100.86      -83.58      79.55       
N           99.65       -82.19      78.24       
C           100.92      -82.29      77.75       
C           101.65      -83.24      78.45       
C           98.81       -81.07      77.92       
H           98.97       -80.99      76.82       
H           99.08       -80.19      78.54       
H           97.75344    -81.33071   77.98175    
H           101.2       -81.15      75.92       
H           97.71       -82.98      80.47       
C           101.64      -81.84      76.55       
S           103.26      -83.46      77.8        
C           102.83      -82.41      76.44       
H           29.18       15.84       1.04        
H           98.56       -84.6       82.12       
