512

C           40.68       21.03       10.22       
C           40.36       22.16       10.97       
C           40.07       20.86       9.01        
C           39.18       21.9        8.6         
C           38.93       23.14       9.31        
C           39.7        23.27       10.51       
N           38.44       22.0        7.42        
C           37.67       23.11       7.32        
C           37.95       23.9        8.56        
O           37.07       23.33       6.24        
C           38.9        21.32       6.18        
C           37.32       25.15       8.88        
C           36.54       26.11       8.08        
C           36.31       27.29       8.86        
N           36.79       27.1        10.14       
C           37.37       25.83       10.2        
C           36.03       26.24       6.77        
O           37.63       25.41       11.28       
C           36.33       27.75       11.37       
H           39.66       24.13       11.11       
H           40.2        19.97       8.49        
H           40.88       22.26       11.94       
H           35.4        29.3        9.12        
H           36.1        25.42       6.1         
H           34.98       27.4        5.3         
H           39.24       22.13       5.58        
H           39.85       20.84       6.33        
H           38.19316    20.55661    5.85485     
H           35.34       28.22       11.1        
H           36.9139     28.56328    11.80097    
H           36.09       27.01       12.15       
C           35.34       27.4        6.29        
C           35.63       28.44       8.41        
C           35.14       28.56       7.08        
C           45.68       16.13       13.94       
S           45.4        17.86       14.12       
C           44.81       15.62       13.02       
C           44.01       16.59       12.39       
C           44.15       17.88       12.87       
N           42.98       16.61       11.37       
C           42.53       17.94       11.21       
C           43.17       18.71       12.23       
C           42.66       15.49       10.5        
H           41.78       15.76       9.95        
H           42.4        14.57       11.08       
H           43.50474    15.32979    9.83004     
H           40.79       18.09       9.85        
H           44.73       14.55       12.78       
C           41.48       18.6        10.49       
S           42.52       20.31       12.17       
C           41.49       19.93       10.75       
C           50.85       9.8         21.51       
C           50.39       11.06       21.79       
C           50.78       9.33        20.18       
C           50.32       10.15       19.22       
C           49.82       11.48       19.5        
C           49.86       11.91       20.84       
N           50.26       9.91        17.82       
C           49.68       10.97       17.19       
C           49.41       12.04       18.2        
O           49.64       11.0        16.03       
C           50.59       8.63        17.28       
C           48.82       13.31       17.95       
C           48.01       13.73       16.8        
C           47.83       15.14       16.96       
N           48.41       15.63       18.1        
C           48.99       14.58       18.77       
C           47.42       13.14       15.65       
O           49.5        14.78       19.87       
C           48.64       17.01       18.55       
H           49.55       12.87       21.05       
H           51.03       8.31        19.96       
H           50.48       11.34       22.85       
H           46.99       16.93       16.22       
H           47.6        12.09       15.37       
H           46.5        13.55       13.75       
H           51.32       8.71        16.47       
H           51.0        7.91        17.93       
H           49.71842    8.20159     16.78512    
H           48.8        17.66       17.67       
H           47.787      17.39773    19.10692    
H           49.51       17.0        19.18       
C           46.82       14.02       14.69       
C           47.09       15.91       16.08       
C           46.59       15.38       14.87       
C           54.0        4.46        26.04       
S           53.93       4.67        24.28       
C           53.45       5.49        26.77       
C           52.89       6.46        25.88       
C           52.99       6.1         24.54       
N           52.16       7.67        25.98       
C           51.95       8.1         24.69       
C           52.35       7.11        23.83       
C           51.38       8.1         27.12       
H           50.61       8.82        26.71       
H           51.88       8.76        27.87       
H           50.81827    7.29651     27.59641    
H           50.77       10.05       24.47       
H           53.32       5.52        27.88       
C           51.27       9.22        24.03       
S           52.12       7.48        22.2        
C           51.39       9.02        22.67       
C           59.29       -4.19       30.93       
C           58.52       -3.34       31.63       
C           59.28       -4.1        29.54       
C           58.65       -3.08       28.87       
C           57.99       -2.03       29.61       
C           57.92       -2.27       30.99       
N           58.6        -2.76       27.5        
C           58.02       -1.56       27.27       
C           57.44       -1.03       28.59       
O           57.93       -1.09       26.19       
C           59.11       -3.63       26.47       
C           56.49       -0.01       28.69       
C           56.01       1.11        27.8        
C           54.97       1.8         28.47       
N           54.69       1.13        29.65       
C           55.47       -0.01       29.79       
C           56.46       1.65        26.64       
O           55.36       -0.76       30.73       
C           53.65       1.47        30.63       
H           57.42       -1.59       31.59       
H           60.06       -4.65       28.99       
H           58.43       -3.45       32.68       
H           53.53       3.4         28.42       
H           57.25       1.22        26.07       
H           55.96       2.99        25.0        
H           59.78       -3.02       25.83       
H           59.74       -4.37       26.92       
H           58.34214    -4.25566    26.01497    
H           53.05       0.66        30.9        
H           54.13187    2.05662     31.41216    
H           52.94       2.18        30.1        
C           55.75       2.7         26.05       
C           54.35       2.93        27.91       
C           54.69       3.31        26.66       
C           65.6        -7.93       33.62       
S           64.85       -7.96       32.04       
C           64.8        -7.39       34.59       
C           63.63       -6.78       33.99       
C           63.58       -6.98       32.62       
N           62.56       -6.04       34.41       
C           61.79       -5.7        33.25       
C           62.39       -6.37       32.16       
C           62.42       -5.4        35.69       
H           61.51       -4.77       35.72       
H           63.3        -4.92       36.03       
H           62.24513    -6.21141    36.39649    
H           60.08       -4.38       33.69       
H           65.13       -7.37       35.66       
C           60.59       -4.96       32.92       
S           61.41       -6.05       30.77       
C           60.28       -4.96       31.63       
C           74.95       -14.38      33.38       
C           74.98       -13.1       33.91       
C           73.76       -14.71      32.78       
C           72.66       -13.89      32.83       
C           72.65       -12.58      33.45       
C           73.91       -12.26      34.02       
N           71.43       -14.05      32.29       
C           70.63       -12.96      32.41       
C           71.34       -11.97      33.25       
O           69.4        -13.11      32.15       
C           71.05       -15.17      31.44       
C           70.59       -10.88      33.76       
C           69.17       -10.32      33.69       
C           69.14       -9.11       34.43       
N           70.33       -8.95       35.11       
C           71.24       -9.98       34.76       
C           68.01       -10.68      32.96       
O           72.34       -10.05      35.19       
C           70.77       -7.78       35.88       
H           74.03       -11.42      34.64       
H           73.75       -15.66      32.19       
H           75.87       -12.8       34.45       
H           67.98       -7.42       35.08       
H           67.96       -11.63      32.41       
H           66.02       -10.15      32.46       
H           71.8        -15.96      31.55       
H           70.14       -15.7       31.85       
H           71.06413    -14.91564   30.38019    
H           70.17       -6.92       35.78       
H           70.84574    -8.02098    36.94033    
H           71.76       -7.6        35.6        
C           66.89       -9.87       32.98       
C           67.98       -8.36       34.52       
C           66.8        -8.72       33.76       
C           81.85       -17.75      32.01       
S           81.5        -16.22      32.7        
C           80.73       -18.29      31.56       
C           79.5        -17.64      31.84       
C           79.74       -16.44      32.52       
N           78.11       -17.82      31.62       
C           77.56       -16.72      32.27       
C           78.47       -15.85      32.83       
C           77.51       -18.87      30.82       
H           76.54       -18.39      30.54       
H           77.28       -19.73      31.4        
H           78.10141    -19.0509    29.92244    
H           75.3        -16.88      32.1        
H           80.84       -19.11      30.91       
C           76.19       -16.38      32.49       
S           77.69       -14.56      33.63       
C           76.11       -15.23      33.21       
C           91.91       -22.49      32.44       
C           91.77       -21.17      32.0        
C           90.78       -23.19      32.73       
C           89.59       -22.49      32.72       
C           89.4        -21.14      32.28       
C           90.56       -20.52      31.88       
N           88.38       -22.99      33.11       
C           87.34       -22.05      32.95       
C           87.93       -20.79      32.4        
O           86.21       -22.23      33.3        
C           88.09       -24.4       33.29       
C           87.22       -19.6       32.13       
C           85.77       -19.34      32.05       
C           85.61       -17.99      31.73       
N           86.84       -17.37      31.67       
C           87.87       -18.26      31.93       
C           84.62       -20.14      32.08       
O           89.02       -17.81      31.9        
C           87.08       -16.0       31.22       
H           90.57       -19.55      31.29       
H           90.77       -24.2       33.08       
H           92.69       -20.62      31.67       
H           84.21       -16.35      31.54       
H           84.73       -21.17      32.14       
H           82.51       -20.31      32.25       
H           88.71       -24.96      32.64       
H           87.08       -24.58      33.03       
H           88.25164    -24.73032   34.31609    
H           87.81       -15.53      31.91       
H           87.32126    -15.94486   30.15847    
H           86.13       -15.55      31.23       
C           83.39       -19.6       32.21       
C           84.36       -17.42      31.76       
C           83.26       -18.26      31.98       
C           98.47       -26.65      32.88       
S           96.82       -27.15      32.97       
C           98.62       -25.3       32.71       
C           97.37       -24.62      32.66       
C           96.25       -25.53      32.84       
N           96.93       -23.36      32.55       
C           95.5        -23.43      32.6        
C           95.07       -24.74      32.8        
C           97.75       -22.11      32.55       
H           98.73       -22.33      32.2        
H           97.33       -21.38      31.87       
H           97.59748    -21.58709   33.49414    
H           94.56       -21.38      32.37       
H           99.57       -24.87      32.51       
C           94.42       -22.46      32.57       
S           93.34       -24.89      32.82       
C           93.23       -23.12      32.53       
C           106.1       -34.57      32.34       
C           106.08      -33.56      31.44       
C           105.39      -34.44      33.5        
C           104.53      -33.3       33.69       
C           104.5       -32.27      32.79       
C           105.37      -32.38      31.66       
N           103.64      -33.08      34.77       
C           102.91      -31.92      34.54       
C           103.46      -31.33      33.25       
O           102.14      -31.5       35.26       
C           103.55      -33.83      35.97       
C           102.99      -30.13      32.72       
C           101.7       -29.45      32.88       
C           101.79      -28.23      32.09       
N           102.99      -28.13      31.42       
C           103.78      -29.25      31.69       
C           100.5       -29.68      33.59       
O           104.86      -29.43      31.23       
C           103.35      -27.1       30.43       
H           105.34      -31.62      30.92       
H           105.31      -35.25      34.25       
H           106.69      -33.61      30.59       
H           100.72      -26.46      31.52       
H           100.39      -30.5       34.27       
H           98.37       -29.03      34.0        
H           103.41      -34.9       35.79       
H           102.65      -33.52      36.53       
H           104.40052   -33.59935   36.61149    
H           102.5       -26.96      29.76       
H           103.58653   -26.14692   30.90306    
H           104.24      -27.4       29.87       
C           99.38       -28.78      33.49       
C           100.73      -27.36      32.07       
C           99.55       -27.6       32.83       
C           110.23      -41.28      32.72       
S           109.1       -40.51      33.82       
C           110.44      -40.47      31.59       
C           109.63      -39.32      31.61       
C           108.85      -39.14      32.75       
N           109.3       -38.26      30.76       
C           108.43      -37.43      31.43       
C           108.07      -37.98      32.63       
C           109.8       -37.97      29.41       
H           109.9       -38.91      28.85       
H           109.08      -37.31      28.93       
H           110.76156   -37.45668   29.41       
H           107.76      -35.57      30.24       
H           110.88      -40.83      30.67       
C           107.71      -36.18      31.14       
S           106.8       -37.02      33.33       
C           106.87      -35.8       32.1        
C           114.76      -50.54      36.66       
C           115.47      -49.61      35.95       
C           113.37      -50.41      36.68       
C           112.7       -49.33      36.15       
C           113.38      -48.35      35.39       
C           114.83      -48.55      35.29       
N           111.4       -49.02      36.33       
C           111.07      -47.83      35.72       
C           112.39      -47.37      34.95       
O           109.91      -47.41      35.59       
C           110.47      -49.67      37.22       
C           112.51      -46.26      34.1        
C           111.68      -45.07      33.85       
C           112.42      -44.2       32.98       
N           113.54      -44.87      32.52       
C           113.64      -46.16      33.13       
C           110.49      -44.56      34.42       
O           114.46      -46.96      32.78       
C           114.51      -44.4       31.47       
H           115.32      -47.89      34.6        
H           112.72      -51.14      37.17       
H           116.52      -49.72      35.89       
H           112.52      -42.34      31.93       
H           110.0       -45.11      35.19       
H           109.06      -43.0       34.49       
H           110.61      -50.77      37.17       
H           109.41      -49.42      36.98       
H           110.52464   -49.32165   38.25139    
H           115.35      -45.05      31.46       
H           114.10398   -44.48401   30.46194    
H           114.82      -43.4       31.75       
C           109.98      -43.36      34.0        
C           111.95      -42.98      32.56       
C           110.71      -42.59      33.04       
C           117.45      -57.0       40.12       
S           115.81      -56.35      40.08       
C           118.32      -56.2       39.47       
C           117.66      -55.11      38.87       
C           116.28      -54.99      39.1        
N           118.21      -54.0       38.17       
C           117.09      -53.26      37.9        
C           115.9       -53.85      38.41       
C           119.59      -53.58      37.93       
H           119.65      -52.7       37.27       
H           120.16      -54.33      37.3        
H           120.17883   -53.37426   38.82389    
H           117.62      -51.46      36.83       
H           119.36      -56.46      39.37       
C           116.82      -52.0       37.28       
S           114.49      -52.85      38.15       
C           115.49      -51.71      37.27       
C           117.86      -67.43      43.94       
C           116.75      -66.55      43.9        
C           119.04      -66.91      43.59       
C           119.14      -65.6       43.11       
C           118.0       -64.7       43.15       
C           116.75      -65.26      43.44       
N           120.3       -64.9       42.61       
C           119.89      -63.6       42.26       
C           118.45      -63.35      42.71       
O           120.67      -62.82      41.8        
C           121.61      -65.42      42.31       
C           117.8       -62.12      42.73       
C           118.02      -60.84      42.03       
C           117.02      -59.95      42.4        
N           116.16      -60.52      43.35       
C           116.55      -61.84      43.49       
C           118.91      -60.36      41.01       
O           115.93      -62.56      44.32       
C           115.0       -59.91      44.09       
H           115.78      -64.83      43.32       
H           119.87      -67.55      43.64       
H           115.81      -66.95      44.19       
H           115.98      -58.14      42.21       
H           119.51      -61.08      40.46       
H           119.37      -58.83      39.6        
H           122.1       -64.85      41.51       
H           121.47      -66.47      41.93       
H           122.19412   -65.37014   43.22892    
H           114.28      -59.5       43.4        
H           115.29011   -59.14327   44.80838    
H           114.59      -60.75      44.67       
C           118.69      -59.1       40.43       
C           116.82      -58.69      41.91       
C           117.73      -58.23      40.88       
C           116.34      -74.46      46.83       
S           115.3       -73.14      46.3        
C           117.64      -74.26      46.41       
C           117.82      -72.98      45.72       
C           116.66      -72.19      45.69       
N           118.83      -72.26      45.02       
C           118.29      -71.02      44.76       
C           116.98      -70.96      45.13       
C           120.26      -72.57      45.0        
H           120.85      -71.76      44.57       
H           120.36      -73.39      44.27       
H           120.65235   -72.71981   46.00584    
H           119.81      -69.56      44.05       
H           118.5       -74.87      46.63       
C           118.75      -69.75      44.28       
S           116.22      -69.43      44.83       
C           117.79      -68.77      44.34       
C           112.38      -80.01      55.49       
C           113.63      -80.28      55.05       
C           111.39      -79.49      54.64       
C           111.84      -79.06      53.41       
C           113.21      -79.23      52.95       
C           114.05      -79.87      53.84       
N           111.09      -78.38      52.4        
C           111.96      -78.0       51.34       
C           113.34      -78.55      51.63       
O           111.61      -77.39      50.38       
C           109.67      -78.12      52.47       
C           114.41      -78.16      50.89       
C           114.6       -77.23      49.73       
C           115.97      -77.33      49.31       
N           116.6       -78.35      50.01       
C           115.74      -78.89      51.01       
C           113.85      -76.29      49.02       
O           116.14      -79.86      51.68       
C           118.0       -78.68      49.99       
H           115.07      -79.99      53.63       
H           110.33      -79.38      54.9        
H           114.35      -80.81      55.69       
H           117.61      -76.58      48.08       
H           112.85      -76.06      49.25       
H           113.88      -74.8       47.51       
H           109.24      -79.0       52.9        
H           109.47      -77.27      53.19       
H           109.10454   -78.1701    51.53949    
H           118.31      -79.03      50.96       
H           118.26763   -79.43086   49.24657    
H           118.59      -77.77      49.93       
C           114.48      -75.43      48.13       
C           116.58      -76.5       48.33       
C           115.79      -75.54      47.73       
C           109.75      -80.99      62.91       
S           109.03      -80.1       61.59       
C           110.8       -81.69      62.54       
C           111.21      -81.53      61.17       
C           110.37      -80.52      60.5        
N           112.16      -81.96      60.24       
C           111.94      -81.28      59.05       
C           110.9       -80.38      59.17       
C           113.0       -83.16      60.32       
H           113.76      -83.05      59.59       
H           112.51      -84.12      60.05       
H           113.47835   -83.21628   61.29781    
H           113.41      -81.99      57.46       
H           111.22      -82.41      63.17       
C           112.62      -81.27      57.79       
S           110.6       -79.56      57.69       
C           112.0       -80.37      56.89       
C           102.94      -82.67      71.61       
C           102.7       -81.64      70.73       
C           104.13      -83.41      71.58       
C           105.05      -83.12      70.62       
C           104.87      -82.1       69.7        
C           103.72      -81.31      69.84       
N           106.29      -83.8       70.39       
C           106.88      -83.34      69.24       
C           106.08      -82.11      68.79       
O           107.9       -83.82      68.78       
C           107.04      -84.5       71.42       
C           106.44      -81.38      67.59       
C           107.53      -81.42      66.59       
C           107.24      -80.51      65.57       
N           106.18      -79.69      65.99       
C           105.59      -80.17      67.19       
C           108.62      -82.25      66.29       
O           104.57      -79.6       67.68       
C           105.75      -78.45      65.35       
H           103.43      -80.63      69.11       
H           104.28      -84.24      72.31       
H           101.81      -81.01      70.65       
H           107.65      -79.69      63.67       
H           108.98      -82.93      67.02       
H           110.12      -82.76      64.86       
H           107.82      -83.82      71.74       
H           106.36      -84.63      72.28       
H           107.399     -85.49803   71.1687     
H           106.49      -78.05      64.66       
H           104.86113   -78.63897   64.74809    
H           105.54      -77.77      66.2        
C           109.34      -82.09      65.09       
C           107.96      -80.35      64.4        
C           109.15      -81.07      64.22       
C           97.59       -83.24      77.33       
S           98.29       -81.95      76.34       
C           98.35       -84.37      76.92       
C           99.3        -84.22      75.87       
C           99.37       -82.88      75.42       
N           100.27      -84.94      75.15       
C           100.77      -84.03      74.18       
C           100.29      -82.79      74.41       
C           100.9       -86.15      75.58       
H           101.77      -86.28      74.96       
H           100.26      -86.96      75.39       
H           101.33783   -86.07938   76.5757     
H           102.2       -85.05      72.86       
H           98.31       -85.35      77.42       
C           101.69      -84.13      73.15       
S           100.93      -81.65      73.28       
C           102.02      -82.89      72.69       
H           34.86       29.49       6.64        
H           96.65       -83.23      77.93       
