512

C           31.69       11.0        36.66       
C           31.26       9.81        37.21       
C           30.82       11.56       35.72       
C           29.59       10.96       35.34       
C           29.25       9.7         35.84       
C           30.16       9.15        36.81       
N           28.61       11.39       34.44       
C           27.64       10.44       34.4        
C           28.02       9.21        35.23       
O           26.65       10.57       33.66       
C           28.54       12.75       33.86       
C           27.29       8.0         35.37       
C           26.02       7.4         34.7        
C           25.77       6.1         35.27       
N           26.84       5.74        36.08       
C           27.8        6.71        36.1        
C           25.03       7.86        33.85       
O           28.84       6.52        36.69       
C           27.04       4.4         36.61       
H           29.93       8.28        37.29       
H           31.1        12.52       35.29       
H           31.82       9.32        38.01       
H           24.53       4.29        35.33       
H           25.14       8.81        33.32       
H           23.19       7.52        32.76       
H           29.48       13.25       33.97       
H           28.28       12.67       32.82       
H           27.88622    13.32727    34.51378    
H           26.45       3.7         35.98       
H           26.73631    4.26581     37.6482     
H           28.14       4.18        36.5        
C           23.88       7.13        33.52       
C           24.72       5.27        34.88       
C           23.8        5.8         33.92       
C           38.99       13.02       38.32       
S           38.31       11.43       38.12       
C           38.1        14.06       38.17       
C           36.77       13.53       37.8        
C           36.77       12.14       37.74       
N           35.5        14.11       37.57       
C           34.65       13.06       37.45       
C           35.4        11.88       37.47       
C           35.2        15.55       37.65       
H           34.16       15.58       37.73       
H           35.4        16.07       36.75       
H           35.59572    16.02903    38.54557    
H           32.54       13.67       37.14       
H           38.37       15.13       38.3        
C           33.31       12.87       37.19       
S           34.37       10.52       37.27       
C           32.99       11.56       36.97       
C           50.11       13.08       40.66       
C           49.32       11.9        40.85       
C           49.36       14.27       40.43       
C           47.94       14.21       40.35       
C           47.13       13.0        40.42       
C           47.91       11.87       40.62       
N           47.01       15.27       40.2        
C           45.68       14.86       40.14       
C           45.65       13.36       40.16       
O           44.71       15.6        39.97       
C           47.28       16.63       40.27       
C           44.51       12.62       39.77       
C           43.07       12.97       39.54       
C           42.44       11.72       39.07       
N           43.3        10.68       38.99       
C           44.57       11.16       39.32       
C           42.25       14.1        39.68       
O           45.49       10.4        39.31       
C           42.87       9.31        38.97       
H           47.41       10.95       40.68       
H           49.81       15.23       40.37       
H           49.78       10.97       41.08       
H           40.73       10.79       38.27       
H           42.59       14.99       40.19       
H           40.29       14.97       39.57       
H           48.34       16.79       40.17       
H           46.88       17.11       39.4        
H           46.85736    17.11499    41.14992    
H           41.9        9.26        39.47       
H           42.70209    8.91122     37.96956    
H           43.62       8.74        39.47       
C           40.91       14.1        39.33       
C           41.1        11.72       38.79       
C           40.39       12.97       38.72       
C           57.63       14.67       41.43       
S           56.36       15.53       40.58       
C           57.26       13.41       41.76       
C           55.89       13.21       41.52       
C           55.26       14.31       41.0        
N           54.98       12.18       41.69       
C           53.72       12.68       41.35       
C           53.92       13.92       40.84       
C           55.31       10.74       41.6        
H           54.45       10.17       41.39       
H           55.67       10.34       42.54       
H           55.92966    10.53579    40.72684    
H           52.1        11.11       41.36       
H           57.93       12.66       42.18       
C           52.39       12.14       41.19       
S           52.41       14.6        40.28       
C           51.54       13.09       40.73       
C           66.18       20.65       45.27       
C           65.7        19.5        45.91       
C           65.46       21.06       44.16       
C           64.46       20.2        43.57       
C           64.21       18.89       43.98       
C           64.78       18.56       45.27       
N           63.78       20.44       42.39       
C           63.01       19.44       41.99       
C           63.26       18.27       42.96       
O           62.34       19.4        40.93       
C           63.89       21.63       41.55       
C           62.6        17.05       42.88       
C           61.32       16.65       42.24       
C           61.12       15.29       42.59       
N           62.14       14.82       43.37       
C           63.08       15.82       43.61       
C           60.25       17.2        41.62       
O           64.1        15.61       44.27       
C           62.01       13.75       44.35       
H           64.51       17.64       45.8        
H           65.71       22.03       43.73       
H           66.12       19.28       46.87       
H           59.74       13.61       42.65       
H           60.33       18.29       41.41       
H           58.34       17.09       40.74       
H           64.76       22.14       41.96       
H           64.18       21.34       40.5        
H           63.02849    22.2954     41.60603    
H           60.95       13.55       44.48       
H           62.43599    12.81992    43.97371    
H           62.51       14.04       45.27       
C           59.08       16.57       41.29       
C           59.98       14.63       42.26       
C           58.93       15.26       41.6        
C           72.6        24.23       47.62       
S           71.23       24.77       46.73       
C           72.59       22.87       47.82       
C           71.35       22.24       47.42       
C           70.57       23.22       46.73       
N           70.65       21.06       47.5        
C           69.47       21.27       46.77       
C           69.37       22.59       46.28       
C           70.93       19.91       48.3        
H           70.18       19.16       48.01       
H           70.88       20.07       49.38       
H           71.92499    19.5163     48.09241    
H           68.18       19.54       46.62       
H           73.41       22.37       48.39       
C           68.23       20.58       46.52       
S           67.91       22.96       45.43       
C           67.39       21.3        45.73       
C           81.23       30.2        51.59       
C           80.03       30.88       51.33       
C           81.35       28.93       51.15       
C           80.25       28.3        50.61       
C           79.05       28.95       50.24       
C           79.0        30.28       50.67       
N           80.36       26.95       50.16       
C           79.14       26.67       49.63       
C           78.22       27.88       49.68       
O           79.03       25.62       49.14       
C           81.34       25.97       50.57       
C           76.91       27.73       49.28       
C           76.03       26.64       48.85       
C           74.71       27.2        48.7        
N           74.72       28.55       48.96       
C           75.99       28.93       49.41       
C           76.13       25.23       48.56       
O           76.25       30.11       49.6        
C           73.71       29.52       48.54       
H           78.13       30.86       50.49       
H           82.22       28.35       51.41       
H           79.83       31.9        51.73       
H           72.59       26.88       48.11       
H           77.04       24.75       48.63       
H           75.08       23.5        47.65       
H           81.68       25.4        49.71       
H           82.23       26.54       50.74       
H           80.97276    25.40875    51.4292     
H           72.98       29.18       47.86       
H           73.1618     29.97318    49.36596    
H           74.22       30.2        47.82       
C           75.02       24.54       48.07       
C           73.6        26.47       48.3        
C           73.73       25.11       47.98       
C           87.42       32.63       55.64       
S           87.24       31.25       54.54       
C           86.34       33.4        55.66       
C           85.35       32.95       54.77       
C           85.72       31.83       54.01       
N           84.06       33.32       54.42       
C           83.59       32.35       53.51       
C           84.54       31.35       53.31       
C           83.43       34.59       54.71       
H           82.34       34.44       54.86       
H           83.52       35.22       53.85       
H           83.70383    35.06744    55.65084    
H           81.43       32.52       52.96       
H           86.27       34.22       56.34       
C           82.35       31.98       52.99       
S           83.91       30.03       52.29       
C           82.32       30.78       52.31       
C           96.53       32.15       62.31       
C           96.56       32.07       60.9        
C           95.24       32.17       62.9        
C           94.09       32.27       62.05       
C           94.16       32.28       60.61       
C           95.43       32.16       60.07       
N           92.79       32.57       62.5        
C           92.01       32.66       61.39       
C           92.82       32.47       60.09       
O           90.78       32.75       61.56       
C           92.35       32.85       63.85       
C           92.26       32.28       58.86       
C           90.97       32.64       58.23       
C           90.9        32.08       56.86       
N           92.12       31.44       56.69       
C           92.95       31.57       57.7        
C           89.81       33.32       58.52       
O           93.94       30.88       57.84       
C           92.51       30.86       55.41       
H           95.54       32.27       59.02       
H           95.1        32.14       63.97       
H           97.48       31.84       60.38       
H           89.74       31.74       55.13       
H           89.67       33.71       59.54       
H           87.8        33.97       58.02       
H           91.45       33.36       63.74       
H           92.99       33.52       64.38       
H           92.22463    31.97242    64.48422    
H           91.73       30.14       55.13       
H           92.61801    31.61608    54.63232    
H           93.5        30.39       55.56       
C           88.6        33.28       57.72       
C           89.74       32.12       56.09       
C           88.58       32.71       56.48       
C           102.29      30.57       67.27       
S           100.55      30.63       67.52       
C           102.65      30.88       66.01       
C           101.59      31.27       65.19       
C           100.34      31.19       65.9        
N           101.38      31.65       63.92       
C           100.0       31.77       63.75       
C           99.32       31.55       64.96       
C           102.4       31.75       62.88       
H           102.26      32.61       62.3        
H           103.43      31.85       63.25       
H           102.37118   30.79178    62.36126    
H           99.4        32.0        61.67       
H           103.7       30.73       65.66       
C           99.07       31.87       62.69       
S           97.6        31.57       64.78       
C           97.75       31.93       63.06       
C           109.36      27.01       75.29       
C           109.6       28.05       74.44       
C           108.06      26.44       75.2        
C           107.15      26.81       74.24       
C           107.47      27.83       73.32       
C           108.7       28.4        73.49       
N           105.88      26.37       73.96       
C           105.34      27.11       72.88       
C           106.36      27.95       72.34       
O           104.22      26.79       72.45       
C           105.12      25.58       74.93       
C           106.15      28.74       71.2        
C           104.95      29.13       70.34       
C           105.43      29.82       69.2        
N           106.82      29.92       69.24       
C           107.33      29.35       70.41       
C           103.54      29.1        70.44       
O           108.51      29.27       70.74       
C           107.67      29.87       68.11       
H           108.84      29.32       72.97       
H           107.77      25.66       75.92       
H           110.56      28.44       74.41       
H           105.02      30.92       67.39       
H           103.05      28.63       71.31       
H           101.69      29.34       69.44       
H           104.1       25.88       75.0        
H           105.69      25.55       75.84       
H           104.98473   24.54058    74.63099    
H           107.05      29.62       67.28       
H           108.15449   30.82494    67.90637    
H           108.42      29.08       68.38       
C           102.74      29.49       69.36       
C           104.63      30.37       68.22       
C           103.26      30.15       68.29       
C           114.0       22.31       79.39       
S           112.41      22.97       79.76       
C           114.56      23.06       78.42       
C           113.68      24.04       77.78       
C           112.44      24.11       78.45       
N           113.72      24.88       76.73       
C           112.44      25.46       76.68       
C           111.67      25.06       77.72       
C           114.73      25.05       75.74       
H           115.13      24.08       75.4        
H           114.34      25.45       74.82       
H           115.55743   25.66158    76.09975    
H           112.09      26.53       74.73       
H           115.6       22.89       78.06       
C           111.7       26.28       75.71       
S           110.09      25.72       77.65       
C           110.45      26.47       76.1        
C           117.66      12.45       83.35       
C           116.32      12.83       83.26       
C           118.55      13.48       83.14       
C           118.09      14.79       82.81       
C           116.79      15.11       82.71       
C           115.94      14.16       83.07       
N           118.93      15.95       82.6        
C           118.13      17.07       82.37       
C           116.69      16.6        82.38       
O           118.57      18.2        82.21       
C           120.44      15.96       82.42       
C           115.56      17.48       82.12       
C           115.42      18.79       81.35       
C           114.06      19.18       81.42       
N           113.31      18.33       82.23       
C           114.11      17.34       82.69       
C           116.32      19.64       80.62       
O           113.72      16.42       83.39       
C           111.96      18.57       82.83       
H           114.92      14.44       83.17       
H           119.62      13.42       83.42       
H           115.57      12.09       83.36       
H           112.55      20.58       80.96       
H           117.31      19.3        80.36       
H           116.46      21.25       79.23       
H           120.89      15.37       83.22       
H           120.9       16.93       82.6        
H           120.78101   15.67467    81.42481    
H           111.57      17.63       83.35       
H           112.01037   19.51977    83.36245    
H           111.32      18.57       81.9        
C           115.84      20.71       79.93       
C           113.61      20.34       80.83       
C           114.52      21.14       80.09       
C           118.34      5.25        86.23       
S           117.11      6.09        85.41       
C           119.5       5.96        86.14       
C           119.33      7.22        85.52       
C           118.01      7.48        85.21       
N           120.01      8.33        85.22       
C           119.16      9.32        84.68       
C           117.86      8.8         84.74       
C           121.46      8.4         85.14       
H           121.77      9.2         84.44       
H           121.76      7.41        84.78       
H           121.91724   8.65005     86.09734    
H           120.08      11.28       84.34       
H           120.5       5.52        86.32       
C           119.2       10.68       84.25       
S           116.73      9.95        84.08       
C           117.99      11.05       83.73       
C           113.34      -4.04       89.4        
C           114.03      -3.24       90.32       
C           113.39      -3.64       88.04       
C           114.17      -2.61       87.62       
C           115.04      -1.87       88.5        
C           114.88      -2.17       89.9        
N           114.42      -2.29       86.27       
C           115.33      -1.25       86.19       
C           115.73      -0.88       87.62       
O           115.73      -0.82       85.1        
C           114.17      -3.19       85.14       
C           116.59      0.18        87.81       
C           117.1       1.29        86.96       
C           118.01      1.89        87.82       
N           118.3       1.17        88.96       
C           117.42      0.17        89.08       
C           116.78      1.94        85.75       
O           117.41      -0.53       90.06       
C           119.26      1.58        89.98       
H           115.24      -1.48       90.65       
H           112.76      -4.1        87.27       
H           113.94      -3.41       91.35       
H           119.16      3.62        88.28       
H           116.0       1.57        85.11       
H           117.03      3.59        84.39       
H           114.31      -2.65       84.18       
H           113.06      -3.38       85.15       
H           114.69581   -4.14214    85.21106    
H           119.11      2.6         90.23       
H           120.26654   1.37869     89.61333    
H           118.96      1.12        90.97       
C           117.3       3.18        85.38       
C           118.51      3.16        87.52       
C           118.08      3.82        86.39       
C           108.13      -9.61       90.51       
S           108.73      -8.9        89.03       
C           108.79      -9.16       91.67       
C           109.78      -8.22       91.34       
C           109.9       -7.97       89.96       
N           110.7       -7.43       92.01       
C           111.41      -6.66       91.05       
C           110.94      -7.0        89.78       
C           110.97      -7.39       93.41       
H           111.79      -6.71       93.69       
H           111.12      -8.4        93.82       
H           110.15388   -6.90907    93.94922    
H           112.83      -5.13       91.96       
H           108.63      -9.5        92.69       
C           112.36      -5.55       91.09       
S           111.85      -6.09       88.58       
C           112.55      -5.08       89.86       
C           99.96       -16.36      87.29       
C           101.06      -15.98      86.55       
C           99.92       -15.84      88.57       
C           100.98      -15.16      89.14       
C           102.16      -14.84      88.38       
C           102.12      -15.24      87.03       
N           101.05      -14.57      90.38       
C           102.3       -13.95      90.56       
C           103.03      -14.06      89.23       
O           102.65      -13.45      91.67       
C           100.1       -14.77      91.47       
C           104.26      -13.55      89.07       
C           105.11      -12.59      89.73       
C           106.31      -12.44      89.05       
N           106.31      -13.37      88.01       
C           105.16      -14.14      88.04       
C           105.01      -11.63      90.8        
O           105.06      -15.05      87.28       
C           107.28      -13.4       86.88       
H           102.94      -14.99      86.42       
H           99.05       -16.09      89.15       
H           101.24      -16.41      85.58       
H           108.3       -11.61      88.85       
H           104.09      -11.49      91.31       
H           105.85      -10.01      91.94       
H           99.24       -15.31      91.17       
H           100.61      -15.38      92.27       
H           99.80099    -13.82428   91.922      
H           107.39      -14.37      86.4        
H           107.00982   -12.63922   86.14766    
H           108.27      -13.32      87.33       
C           106.02      -10.72      91.13       
C           107.36      -11.57      89.39       
C           107.19      -10.72      90.45       
C           93.74       -20.56      84.86       
S           94.17       -19.95      86.45       
C           94.78       -20.39      84.0        
C           95.89       -19.68      84.55       
C           95.64       -19.29      85.84       
N           97.06       -19.13      84.12       
C           97.65       -18.48      85.2        
C           96.73       -18.44      86.25       
C           97.11       -18.79      82.69       
H           98.06       -18.22      82.5        
H           96.3        -18.15      82.33       
H           97.18865    -19.67659   82.06081    
H           99.78       -17.68      84.79       
H           94.8        -20.74      82.93       
C           98.82       -17.7       85.44       
S           97.33       -17.44      87.59       
C           98.82       -17.15      86.73       
C           83.51       -24.9       83.95       
C           84.3        -24.59      82.9        
C           84.05       -24.82      85.25       
C           85.39       -24.4       85.45       
C           86.19       -23.99      84.32       
C           85.59       -24.03      83.12       
N           86.12       -24.23      86.62       
C           87.4        -23.76      86.31       
C           87.53       -23.59      84.78       
O           88.24       -23.59      87.1        
C           85.59       -24.3       88.02       
C           88.65       -23.21      84.03       
C           89.9        -22.57      84.46       
C           90.88       -22.51      83.41       
N           90.23       -23.18      82.31       
C           88.98       -23.66      82.57       
C           90.4        -22.04      85.68       
O           88.47       -24.44      81.85       
C           90.58       -22.9       81.01       
H           86.11       -23.64      82.23       
H           83.49       -25.09      86.08       
H           83.83       -24.55      81.9        
H           92.89       -21.82      82.61       
H           89.88       -22.15      86.57       
H           91.92       -20.99      86.69       
H           84.55       -24.52      88.04       
H           86.01       -25.06      88.63       
H           85.71489    -23.37027   88.57507    
H           90.44       -23.77      80.41       
H           89.97042    -22.09179   80.60589    
H           91.62       -22.47      81.03       
C           91.63       -21.37      85.74       
C           92.15       -21.86      83.45       
C           92.51       -21.3       84.69       
C           75.95       -26.62      83.36       
S           76.77       -25.35      84.18       
C           76.84       -27.55      82.84       
C           78.2        -27.14      82.9        
C           78.37       -25.95      83.65       
N           79.42       -27.62      82.45       
C           80.39       -26.72      83.01       
C           79.73       -25.77      83.8        
C           79.6        -28.93      81.96       
H           80.67       -29.02      81.85       
H           79.25       -28.94      80.93       
H           79.23065    -29.7556    82.56834    
H           82.47       -27.14      82.41       
H           76.49       -28.41      82.33       
C           81.8        -26.47      82.96       
S           80.78       -24.72      84.6        
C           82.2        -25.41      83.74       
H           22.84       5.23        33.73       
H           74.88       -26.86      83.39       
