512

C           43.31       20.57       6.05        
C           43.62       21.79       6.64        
C           42.87       20.51       4.72        
C           42.74       21.69       4.02        
C           43.07       22.97       4.54        
C           43.61       22.99       5.87        
N           42.31       21.8        2.69        
C           42.46       23.12       2.19        
C           43.07       23.92       3.37        
O           42.32       23.44       0.99        
C           41.59       20.67       2.15        
C           43.23       25.26       3.29        
C           43.41       26.27       2.22        
C           43.4        27.57       2.71        
N           43.23       27.44       4.07        
C           43.03       26.13       4.43        
C           43.67       26.25       0.81        
O           42.8        25.85       5.57        
C           43.14       28.52       4.99        
H           43.98       23.88       6.31        
H           42.64       19.53       4.31        
H           43.98       21.81       7.64        
H           43.67       29.71       2.54        
H           43.55       25.35       0.39        
H           43.86       27.23       -1.12       
H           42.26       19.94       1.79        
H           41.03       20.16       2.98        
H           40.89271    20.96884    1.36733     
H           42.73       29.41       4.54        
H           44.10977    28.65854    5.46796     
H           42.43       28.29       5.74        
C           43.74       27.38       -0.03       
C           43.63       28.73       1.96        
C           43.79       28.72       0.59        
C           44.41       14.74       10.98       
S           44.65       16.48       11.26       
C           44.11       14.45       9.67        
C           43.9        15.64       8.89        
C           44.2        16.84       9.63        
N           43.47       15.93       7.62        
C           43.53       17.31       7.5         
C           44.0        17.86       8.72        
C           42.9        15.02       6.63        
H           42.99       15.51       5.67        
H           41.87       14.81       6.74        
H           43.49156    14.10645    6.5701      
H           42.83       17.88       5.58        
H           44.03       13.43       9.31        
C           43.15       18.17       6.53        
S           43.81       19.54       8.55        
C           43.48       19.43       6.9         
C           47.64       8.05        19.28       
C           47.62       9.42        19.41       
C           47.18       7.55        18.09       
C           46.82       8.34        17.03       
C           46.74       9.74        17.19       
C           47.1        10.3        18.39       
N           46.37       7.9         15.81       
C           46.06       9.04        15.05       
C           46.28       10.31       15.89       
O           45.63       8.87        13.87       
C           46.08       6.5         15.43       
C           46.23       11.62       15.38       
C           45.57       12.25       14.26       
C           46.04       13.58       14.11       
N           46.7        13.95       15.26       
C           47.04       12.77       16.02       
C           44.69       11.83       13.22       
O           47.96       12.81       16.86       
C           47.47       15.15       15.34       
H           46.97       11.35       18.51       
H           47.21       6.43        17.9        
H           47.95       9.84        20.28       
H           46.22       15.42       12.97       
H           44.26       10.88       13.31       
H           43.65       12.36       11.44       
H           46.47       6.25        14.38       
H           46.54       5.81        16.12       
H           44.99863    6.36312     15.43       
H           47.8        15.62       14.37       
H           47.00711    15.99745    15.84562    
H           48.43       14.92       15.85       
C           44.35       12.66       12.16       
C           45.78       14.42       12.99       
C           44.94       13.9        12.0        
C           51.52       3.79        24.42       
S           50.97       3.41        22.79       
C           51.17       5.04        24.74       
C           50.41       5.71        23.77       
C           50.25       5.0         22.59       
N           49.83       6.93        23.63       
C           49.33       6.98        22.36       
C           49.57       5.8         21.7        
C           50.06       8.06        24.5        
H           49.49       8.92        24.21       
H           51.11       8.37        24.45       
H           49.78056    7.85741     25.53391    
H           48.24       8.83        22.0        
H           51.44       5.59        25.6        
C           48.58       7.86        21.56       
S           48.88       5.71        20.13       
C           48.22       7.33        20.37       
C           59.82       -1.67       29.67       
C           59.0        -0.81       30.31       
C           59.65       -1.8        28.32       
C           58.55       -1.2        27.71       
C           57.59       -0.32       28.39       
C           57.9        -0.21       29.77       
N           58.18       -1.26       26.35       
C           57.07       -0.54       26.1        
C           56.58       0.08        27.42       
O           56.51       -0.6        25.01       
C           58.89       -2.04       25.27       
C           55.39       0.84        27.53       
C           54.37       1.29        26.51       
C           53.36       2.0         27.15       
N           53.54       1.92        28.56       
C           54.78       1.28        28.89       
C           54.23       1.39        25.06       
O           55.16       1.29        30.02       
C           52.35       1.68        29.39       
H           57.3        0.38        30.42       
H           60.33       -2.31       27.66       
H           59.2        -0.63       31.45       
H           51.85       3.56        27.02       
H           55.04       1.11        24.43       
H           53.3        2.22        23.31       
H           59.32       -1.45       24.54       
H           59.68       -2.63       25.68       
H           58.24318    -2.83288    24.89442    
H           52.45       0.7         29.87       
H           52.33548    2.493       30.11589    
H           51.49       1.68        28.77       
C           53.2        2.1         24.38       
C           52.38       2.73        26.52       
C           52.32       2.8         25.15       
C           66.01       -5.9        31.67       
S           64.75       -6.19       30.46       
C           65.94       -4.6        32.16       
C           64.83       -3.87       31.55       
C           64.02       -4.61       30.66       
N           64.21       -2.68       31.78       
C           63.02       -2.65       31.12       
C           62.86       -3.84       30.39       
C           64.55       -1.69       32.73       
H           63.97       -0.75       32.5        
H           65.61       -1.47       32.71       
H           64.26627    -1.99501    33.73725    
H           61.96       -0.72       31.34       
H           66.64       -4.23       32.88       
C           61.97       -1.73       30.97       
S           61.28       -3.91       29.66       
C           61.0        -2.29       30.23       
C           74.94       -12.5       30.92       
C           74.94       -11.25      31.47       
C           73.66       -13.01      30.51       
C           72.5        -12.29      30.79       
C           72.59       -11.01      31.44       
C           73.8        -10.55      31.74       
N           71.18       -12.69      30.66       
C           70.34       -11.69      31.15       
C           71.22       -10.54      31.61       
O           69.11       -11.85      31.14       
C           70.76       -13.64      29.69       
C           70.67       -9.43       32.18       
C           69.36       -8.69       31.95       
C           69.4        -7.49       32.75       
N           70.62       -7.49       33.46       
C           71.49       -8.57       33.19       
C           68.24       -8.89       31.13       
O           72.55       -8.73       33.82       
C           71.08       -6.37       34.27       
H           73.94       -9.6        32.17       
H           73.57       -14.06      30.17       
H           75.88       -10.83      31.76       
H           68.34       -5.7        33.28       
H           68.27       -9.78       30.53       
H           66.41       -8.25       30.27       
H           71.63       -14.15      29.36       
H           70.15       -14.32      30.22       
H           70.22971    -13.24047   28.82555    
H           70.62       -5.41       33.98       
H           70.96539    -6.51326    35.34445    
H           72.1        -6.27       34.0        
C           67.18       -7.96       30.99       
C           68.28       -6.56       32.66       
C           67.12       -6.85       31.84       
C           81.96       -15.79      31.71       
S           81.48       -14.1       31.5        
C           80.86       -16.65      31.71       
C           79.71       -15.99      31.35       
C           79.86       -14.61      31.13       
N           78.34       -16.27      31.1        
C           77.7        -15.09      30.89       
C           78.6        -14.0       30.91       
C           77.68       -17.56      31.09       
H           76.63       -17.46      30.64       
H           77.63       -17.89      32.15       
H           78.22288    -18.27913   30.47662    
H           75.51       -15.33      30.86       
H           81.05       -17.71      31.87       
C           76.34       -14.68      30.75       
S           77.79       -12.48      30.85       
C           76.2        -13.31      30.7        
C           92.48       -19.6       32.2        
C           92.27       -18.28      31.81       
C           91.39       -20.4       32.39       
C           90.06       -19.9       32.26       
C           89.83       -18.54      31.94       
C           90.93       -17.74      31.78       
N           88.87       -20.63      32.24       
C           87.78       -19.73      32.18       
C           88.36       -18.35      31.91       
O           86.68       -20.18      31.99       
C           88.81       -22.07      32.05       
C           87.5        -17.26      31.7        
C           86.03       -17.1       31.81       
C           85.72       -15.76      31.41       
N           86.91       -15.1       31.06       
C           87.99       -15.93      31.19       
C           84.94       -17.88      32.28       
O           89.15       -15.53      30.91       
C           86.94       -13.67      30.68       
H           90.87       -16.74      31.62       
H           91.5        -21.5       32.58       
H           93.06       -17.58      31.73       
H           84.16       -14.45      30.81       
H           85.01       -18.79      32.79       
H           82.92       -17.97      32.9        
H           89.63       -22.42      31.38       
H           87.89       -22.41      31.62       
H           88.96615    -22.67329   32.94429    
H           87.51       -13.09      31.42       
H           87.25089    -13.58324   29.63888    
H           85.95       -13.37      30.88       
C           83.68       -17.35      32.33       
C           84.42       -15.3       31.43       
C           83.36       -16.14      31.88       
C           99.26       -22.97      33.64       
S           97.67       -23.63      33.69       
C           99.26       -21.75      33.09       
C           97.99       -21.24      32.79       
C           96.99       -22.21      32.94       
N           97.42       -20.04      32.31       
C           96.04       -20.29      32.21       
C           95.74       -21.6       32.64       
C           98.28       -18.97      31.85       
H           99.04       -19.41      31.23       
H           97.83       -18.32      31.12       
H           98.69758    -18.38683   32.67076    
H           94.98       -18.45      32.05       
H           100.13      -21.16      33.04       
C           94.9        -19.5       31.97       
S           94.02       -21.86      32.64       
C           93.81       -20.16      32.15       
C           107.67      -30.27      35.17       
C           107.72      -29.2       34.34       
C           106.68      -30.27      36.21       
C           105.68      -29.28      36.14       
C           105.69      -28.22      35.24       
C           106.73      -28.26      34.32       
N           104.57      -29.21      37.02       
C           103.73      -28.15      36.66       
C           104.46      -27.43      35.52       
O           102.67      -27.85      37.26       
C           104.17      -30.12      38.05       
C           103.92      -26.23      34.89       
C           102.58      -25.63      34.76       
C           102.67      -24.42      34.07       
N           103.99      -24.28      33.58       
C           104.8       -25.33      34.02       
C           101.28      -25.9       35.23       
O           105.92      -25.24      33.79       
C           104.59      -23.19      32.84       
H           106.86      -27.44      33.57       
H           106.57      -31.11      36.86       
H           108.54      -29.12      33.62       
H           101.89      -22.58      33.3        
H           101.02      -26.74      35.79       
H           99.22       -25.36      34.85       
H           104.26      -31.14      37.6        
H           103.16      -29.84      38.24       
H           104.86645   -30.02441   38.88301    
H           105.67      -23.13      32.87       
H           104.19235   -23.07954   31.83115    
H           104.18      -22.4       33.46       
C           100.22      -25.01      34.82       
C           101.65      -23.48      33.85       
C           100.37      -23.82      34.14       
C           111.2       -37.1       35.24       
S           110.47      -36.18      36.54       
C           111.25      -36.35      34.1        
C           110.66      -35.12      34.19       
C           110.19      -34.88      35.47       
N           110.44      -34.03      33.35       
C           109.77      -33.08      34.09       
C           109.61      -33.57      35.37       
C           110.6       -34.04      31.94       
H           109.93      -34.85      31.54       
H           110.37      -33.1       31.43       
H           111.62922   -34.28643   31.67907    
H           109.17      -31.31      32.91       
H           111.59      -36.77      33.15       
C           109.16      -31.79      33.84       
S           108.75      -32.45      36.37       
C           108.66      -31.31      35.0        
C           114.44      -47.68      37.23       
C           115.07      -46.72      36.34       
C           113.23      -47.19      37.83       
C           112.74      -45.93      37.54       
C           113.34      -45.08      36.55       
C           114.59      -45.42      36.05       
N           111.65      -45.22      38.08       
C           111.58      -43.97      37.56       
C           112.52      -43.84      36.38       
O           110.79      -43.21      38.08       
C           110.98      -45.65      39.29       
C           112.67      -42.65      35.64       
C           112.04      -41.34      35.7        
C           112.67      -40.56      34.7        
N           113.41      -41.41      33.83       
C           113.55      -42.68      34.39       
C           111.15      -40.6       36.51       
O           114.17      -43.57      33.83       
C           114.35      -40.95      32.89       
H           115.15      -44.83      35.41       
H           112.74      -47.94      38.47       
H           116.09      -46.94      35.94       
H           113.0       -38.59      33.85       
H           110.45      -41.14      37.13       
H           110.27      -38.76      36.98       
H           110.96      -44.78      39.91       
H           111.6       -46.33      39.84       
H           110.01164   -46.11313   39.10054    
H           115.07      -41.75      32.62       
H           113.93573   -40.59287   31.94717    
H           114.81      -40.18      33.38       
C           111.0       -39.23      36.36       
C           112.52      -39.18      34.6        
C           111.6       -38.5       35.4        
C           116.56      -55.1       38.63       
S           114.92      -54.56      38.36       
C           117.53      -54.11      38.58       
C           116.91      -52.89      38.19       
C           115.51      -52.88      38.12       
N           117.43      -51.61      37.94       
C           116.34      -50.78      37.7        
C           115.14      -51.51      37.92       
C           118.83      -51.15      37.92       
H           118.81      -50.06      37.68       
H           119.54      -51.62      37.27       
H           119.27462   -51.13589   38.9151     
H           117.07      -48.67      37.38       
H           118.56      -54.28      38.77       
C           116.24      -49.42      37.54       
S           113.85      -50.42      37.67       
C           114.99      -49.02      37.53       
C           118.31      -65.62      41.63       
C           117.3       -65.3       40.7        
C           119.33      -64.69      41.84       
C           119.25      -63.49      41.14       
C           118.21      -63.09      40.2        
C           117.31      -64.14      39.95       
N           120.17      -62.45      41.27       
C           119.71      -61.43      40.46       
C           118.37      -61.66      39.86       
O           120.39      -60.42      40.38       
C           121.53      -62.46      41.81       
C           117.58      -60.72      39.09       
C           117.52      -59.25      39.05       
C           116.37      -58.86      38.32       
N           115.72      -59.98      37.82       
C           116.49      -61.13      38.1        
C           118.3       -58.25      39.6        
O           116.15      -62.17      37.71       
C           114.39      -59.99      37.14       
H           116.47      -63.88      39.3        
H           120.19      -64.87      42.52       
H           116.61      -66.1       40.57       
H           115.15      -57.19      37.67       
H           119.23      -58.38      40.13       
H           118.51      -56.15      40.03       
H           122.17      -62.03      41.1        
H           121.82      -63.48      41.99       
H           121.61274   -61.88769   42.73397    
H           114.36      -59.48      36.21       
H           113.64879   -59.61199   37.84414    
H           114.06      -61.02      37.0        
C           117.91      -56.92      39.56       
C           116.07      -57.5       38.2        
C           116.86      -56.52      38.81       
C           116.5       -71.08      46.95       
S           115.56      -70.41      45.62       
C           117.87      -70.71      46.85       
C           118.1       -69.86      45.7        
C           116.92      -69.55      44.97       
N           119.17      -69.16      45.21       
C           118.71      -68.37      44.12       
C           117.34      -68.54      44.0        
C           120.49      -69.05      45.87       
H           120.93      -68.13      45.5        
H           121.17      -69.86      45.55       
H           120.41676   -68.8962    46.94661    
H           120.15      -67.13      43.24       
H           118.58      -71.08      47.49       
C           119.16      -67.49      43.16       
S           116.66      -67.51      42.76       
C           118.2       -66.83      42.43       
C           111.83      -76.83      55.18       
C           113.14      -76.46      55.19       
C           111.01      -76.62      54.08       
C           111.65      -76.22      52.89       
C           113.06      -75.92      52.82       
C           113.77      -76.02      54.06       
N           111.14      -75.98      51.66       
C           112.05      -75.42      50.71       
C           113.39      -75.39      51.5        
O           111.73      -75.06      49.6        
C           109.69      -75.96      51.38       
C           114.6       -74.86      50.92       
C           114.82      -73.97      49.74       
C           116.15      -73.52      49.77       
N           116.85      -74.17      50.83       
C           115.95      -75.02      51.54       
C           114.1       -73.4       48.65       
O           116.36      -75.48      52.58       
C           118.13      -73.82      51.36       
H           114.86      -76.04      54.0        
H           109.98      -76.84      54.07       
H           113.71      -76.48      56.11       
H           117.75      -72.38      48.94       
H           113.17      -73.8       48.29       
H           114.08      -72.23      46.9        
H           109.11      -76.27      52.27       
H           109.53      -74.87      51.02       
H           109.38152   -76.6774    50.61956    
H           118.05      -73.84      52.46       
H           118.89866   -74.50404   51.00035    
H           118.39      -72.83      51.06       
C           114.66      -72.47      47.77       
C           116.67      -72.63      48.89       
C           115.91      -72.04      47.89       
C           109.04      -78.46      62.36       
S           108.53      -77.24      61.18       
C           109.87      -79.36      61.81       
C           110.26      -79.03      60.47       
C           109.65      -77.87      60.02       
N           111.19      -79.4       59.54       
C           111.06      -78.59      58.41       
C           110.03      -77.6       58.62       
C           112.18      -80.39      59.69       
H           112.72      -80.45      58.79       
H           111.77      -81.39      59.96       
H           112.89244   -80.08966   60.45832    
H           112.48      -78.95      56.68       
H           110.29      -80.12      62.36       
C           111.63      -78.48      57.14       
S           109.89      -76.59      57.25       
C           111.31      -77.28      56.47       
C           104.8       -78.47      72.73       
C           104.24      -77.81      71.68       
C           106.1       -78.92      72.56       
C           106.75      -78.88      71.3        
C           106.04      -78.33      70.13       
C           104.83      -77.73      70.45       
N           107.97      -79.5       70.89       
C           108.02      -79.44      69.53       
C           106.95      -78.5       68.92       
O           109.03      -79.86      68.96       
C           109.03      -80.08      71.68       
C           106.87      -78.08      67.68       
C           107.6       -78.35      66.4        
C           107.05      -77.54      65.35       
N           106.02      -76.74      65.74       
C           105.91      -77.02      67.15       
C           108.73      -79.11      65.98       
O           105.06      -76.59      67.82       
C           105.7       -75.45      65.22       
H           104.2       -77.35      69.66       
H           106.6       -79.46      73.28       
H           103.2       -77.58      71.78       
H           107.15      -76.93      63.3        
H           109.18      -79.79      66.6        
H           109.99      -79.83      64.5        
H           109.97      -79.64      71.31       
H           108.96      -79.77      72.67       
H           109.00881   -81.16794   71.74358    
H           106.51      -75.1       64.5        
H           104.83742   -75.43597   64.55378    
H           105.56      -74.8       66.04       
C           109.21      -79.11      64.72       
C           107.53      -77.58      64.06       
C           108.56      -78.47      63.73       
C           99.7        -78.56      78.71       
S           99.93       -77.42      77.44       
C           100.69      -79.55      78.73       
C           101.59      -79.45      77.55       
C           101.3       -78.3       76.84       
N           102.66      -80.09      77.0        
C           103.1       -79.43      75.88       
C           102.25      -78.32      75.78       
C           103.17      -81.42      77.45       
H           104.28      -81.31      77.22       
H           102.65      -82.31      76.95       
H           103.19166   -81.54272   78.53285    
H           104.82      -80.44      74.81       
H           100.66      -80.43      79.36       
C           104.03      -79.65      74.82       
S           102.67      -77.56      74.26       
C           104.0       -78.62      73.9        
H           43.13       29.45       0.1         
H           98.72       -78.68      79.17       
