512

C           45.87       29.9        4.8         
C           46.0        30.82       5.82        
C           45.3        30.28       3.61        
C           44.92       31.6        3.47        
C           45.04       32.61       4.45        
C           45.6        32.2        5.72        
N           44.28       32.12       2.31        
C           44.01       33.46       2.44        
C           44.49       33.88       3.86        
O           43.45       34.12       1.61        
C           43.73       31.37       1.22        
C           44.31       35.21       4.33        
C           44.03       36.53       3.7         
C           43.79       37.44       4.73        
N           44.02       36.91       5.96        
C           44.38       35.52       5.83        
C           43.86       36.96       2.38        
O           44.58       34.77       6.77        
C           43.82       37.48       7.28        
H           45.7        32.88       6.48        
H           45.23       29.57       2.81        
H           46.45       30.47       6.71        
H           43.24       39.52       5.29        
H           43.9        36.31       1.53        
H           43.46       38.6        1.16        
H           43.73       31.94       0.29        
H           44.37       30.54       0.96        
H           42.72675    31.01021    1.44833     
H           42.91       38.1        7.3         
H           44.67793    38.07559    7.59197     
H           43.6        36.65       8.04        
C           43.43       38.24       2.15        
C           43.34       38.76       4.49        
C           43.12       39.13       3.12        
C           47.55       22.81       7.44        
S           48.37       24.36       7.63        
C           46.57       22.92       6.46        
C           46.41       24.26       5.91        
C           47.34       25.13       6.54        
N           45.6        24.95       5.07        
C           45.89       26.24       5.22        
C           47.05       26.4        6.05        
C           44.68       24.52       4.06        
H           44.63       25.35       3.38        
H           43.67       24.35       4.43        
H           45.03595    23.61197    3.5733      
H           44.5        27.74       4.21        
H           45.95       22.07       6.25        
C           45.4        27.51       4.78        
S           47.53       28.04       6.16        
C           46.27       28.54       5.12        
C           51.94       13.67       12.51       
C           52.5        14.9        12.62       
C           50.65       13.65       11.9        
C           50.0        14.83       11.43       
C           50.65       16.15       11.5        
C           51.9        16.1        12.15       
N           48.81       15.0        10.89       
C           48.6        16.28       10.44       
C           49.73       17.15       10.85       
O           47.6        16.56       9.86        
C           47.74       14.03       11.04       
C           49.75       18.56       10.68       
C           48.98       19.48       9.82        
C           49.43       20.8        10.0        
N           50.48       20.74       10.93       
C           50.64       19.48       11.44       
C           48.05       19.34       8.74        
O           51.37       19.16       12.37       
C           51.48       21.72       10.96       
H           52.43       16.99       12.35       
H           50.07       12.68       11.92       
H           53.46       14.95       13.11       
H           49.27       22.86       9.47        
H           47.69       18.37       8.48        
H           47.03       20.14       7.05        
H           47.25       13.92       10.06       
H           48.09       13.06       11.43       
H           46.96365    14.41112    11.70343    
H           51.5        22.28       10.05       
H           51.35638    22.42538    11.78174    
H           52.49       21.18       10.97       
C           47.55       20.38       7.99        
C           48.9        21.88       9.27        
C           47.93       21.7        8.25        
C           55.11       7.25        16.13       
S           53.9        7.3         14.86       
C           55.5        8.53        16.35       
C           54.86       9.54        15.58       
C           53.93       9.07        14.73       
N           54.95       10.94       15.57       
C           54.01       11.38       14.7        
C           53.37       10.27       14.09       
C           55.56       11.73       16.65       
H           55.69       12.8        16.43       
H           56.62       11.49       16.86       
H           54.99405    11.75149    17.58131    
H           53.9        13.55       14.8        
H           56.25       8.75        17.13       
C           53.5        12.62       14.31       
S           52.29       10.86       12.86       
C           52.6        12.55       13.26       
C           60.11       -2.07       19.97       
C           59.82       -1.02       20.75       
C           59.51       -2.13       18.68       
C           58.78       -1.02       18.26       
C           58.56       0.17        19.02       
C           59.02       0.07        20.31       
N           58.19       -0.75       17.0        
C           57.61       0.5         16.89       
C           57.88       1.22        18.2        
O           56.72       0.79        16.09       
C           57.85       -1.7        15.96       
C           57.35       2.47        18.51       
C           56.9        3.59        17.63       
C           56.42       4.64        18.46       
N           56.61       4.27        19.81       
C           57.19       3.03        19.89       
C           56.77       3.84        16.24       
O           57.29       2.53        20.99       
C           55.9        4.79        20.96       
H           58.84       0.81        21.09       
H           59.55       -2.96       18.04       
H           60.09       -1.06       21.81       
H           55.4        6.64        18.74       
H           57.1        3.04        15.58       
H           55.92       5.17        14.7        
H           57.95       -2.71       16.43       
H           56.83       -1.64       15.75       
H           58.59804    -1.64965    15.1688     
H           55.49       3.9         21.52       
H           56.543      5.33185     21.65357    
H           55.06       5.32        20.46       
C           56.06       4.94        15.76       
C           55.81       5.86        18.03       
C           55.66       6.01        16.64       
C           65.18       -7.73       21.37       
S           64.04       -7.56       20.08       
C           64.94       -6.85       22.4        
C           63.95       -5.88       22.01       
C           63.37       -6.08       20.75       
N           63.44       -4.75       22.64       
C           62.57       -4.17       21.71       
C           62.49       -5.0        20.53       
C           63.84       -4.21       23.95       
H           63.12       -3.43       24.17       
H           64.87       -3.76       24.04       
H           63.71377    -5.01648    24.67233    
H           61.77       -2.17       22.22       
H           65.63       -6.74       23.19       
C           61.79       -3.0        21.55       
S           61.38       -4.39       19.36       
C           61.03       -3.07       20.46       
C           72.83       -15.33      24.08       
C           73.0        -13.96      24.39       
C           71.76       -15.72      23.35       
C           70.85       -14.74      22.85       
C           70.97       -13.41      23.09       
C           72.09       -13.01      23.88       
N           69.77       -15.04      22.1        
C           69.01       -13.91      21.96       
C           69.78       -12.75      22.54       
O           67.91       -14.01      21.39       
C           69.58       -16.26      21.25       
C           69.35       -11.42      22.45       
C           68.08       -10.74      22.18       
C           68.37       -9.33       22.18       
N           69.75       -9.16       22.39       
C           70.37       -10.32      22.6        
C           66.76       -11.11      21.9        
O           71.59       -10.33      22.54       
C           70.56       -8.02       22.14       
H           72.29       -12.0       24.14       
H           71.55       -16.75      23.03       
H           73.74       -13.51      25.04       
H           67.73       -7.46       21.49       
H           66.5        -12.19      21.9        
H           64.82       -10.53      21.43       
H           70.27       -17.06      21.53       
H           68.57       -16.61      21.38       
H           69.79952    -16.0478    20.20363    
H           70.08       -7.29       21.42       
H           70.73187    -7.56169    23.11392    
H           71.48       -8.17       21.59       
C           65.83       -10.14      21.5        
C           67.48       -8.42       21.69       
C           66.13       -8.78       21.47       
C           78.63       -19.64      27.23       
S           78.59       -18.16      26.28       
C           77.37       -20.2       27.28       
C           76.41       -19.42      26.55       
C           76.85       -18.2       26.12       
N           75.05       -19.41      26.31       
C           74.67       -18.23      25.63       
C           75.78       -17.42      25.55       
C           74.14       -20.33      27.02       
H           73.13       -19.95      26.95       
H           74.43       -20.22      28.08       
H           74.32581    -21.30366   26.56662    
H           72.59       -17.94      25.14       
H           77.21       -21.13      27.9        
C           73.56       -17.57      25.1        
S           75.5        -15.86      24.82       
C           73.82       -16.3       24.57       
C           88.78       -22.97      30.15       
C           88.57       -21.79      29.43       
C           87.7        -23.69      30.69       
C           86.43       -23.19      30.5        
C           86.17       -22.01      29.77       
C           87.26       -21.32      29.2        
N           85.3        -23.78      31.0        
C           84.22       -23.02      30.67       
C           84.69       -21.81      29.88       
O           83.07       -23.22      31.0        
C           85.2        -24.95      31.8        
C           83.88       -20.82      29.32       
C           82.43       -20.8       28.95       
C           82.21       -19.55      28.28       
N           83.38       -18.83      28.23       
C           84.39       -19.45      28.94       
C           81.35       -21.68      28.97       
O           85.49       -18.87      29.04       
C           83.56       -17.51      27.67       
H           87.06       -20.34      28.67       
H           87.82       -24.66      31.14       
H           89.45       -21.19      29.12       
H           80.98       -18.32      27.18       
H           81.54       -22.64      29.43       
H           79.4        -22.07      28.3        
H           85.96       -25.7       31.54       
H           84.16       -25.35      31.6        
H           85.17183    -24.74579   32.87033    
H           84.29       -16.97      28.35       
H           83.8901     -17.53751   26.63155    
H           82.62       -16.87      27.9        
C           80.15       -21.36      28.32       
C           81.01       -19.23      27.73       
C           79.93       -20.09      27.76       
C           95.42       -26.81      31.83       
S           93.73       -27.15      32.16       
C           95.53       -25.69      31.01       
C           94.31       -24.98      30.82       
C           93.25       -25.64      31.37       
N           93.87       -23.82      30.2        
C           92.47       -23.83      30.32       
C           92.12       -24.91      31.11       
C           94.68       -22.94      29.42       
H           95.53       -23.59      29.06       
H           94.07       -22.64      28.53       
H           94.99519    -22.08755   30.02173    
H           91.41       -21.95      29.6        
H           96.49       -25.4       30.59       
C           91.37       -22.96      30.0        
S           90.41       -24.99      31.21       
C           90.15       -23.48      30.36       
C           103.73      -34.14      33.77       
C           104.02      -32.83      33.54       
C           102.39      -34.58      33.68       
C           101.37      -33.67      33.43       
C           101.66      -32.26      33.27       
C           103.02      -31.86      33.36       
N           100.01      -33.89      33.17       
C           99.3        -32.72      32.97       
C           100.32      -31.59      33.04       
O           98.16       -32.72      32.58       
C           99.38       -35.2       33.19       
C           100.02      -30.29      32.9        
C           98.67       -29.58      32.82       
C           98.89       -28.23      32.42       
N           100.24      -27.94      32.39       
C           100.97      -29.09      32.61       
C           97.28       -29.89      33.05       
O           102.18      -29.0       32.54       
C           100.81      -26.66      32.06       
H           103.37      -30.87      33.24       
H           102.19      -35.67      33.86       
H           105.07      -32.52      33.4        
H           98.01       -26.32      31.92       
H           96.97       -30.83      33.5        
H           95.19       -29.27      32.83       
H           100.1       -35.9       32.74       
H           98.49       -35.16      32.56       
H           98.92844    -35.3642    34.16838    
H           101.78      -26.49      32.6        
H           100.91407   -26.58368   30.97767    
H           100.09      -25.93      32.4        
C           96.23       -29.01      32.63       
C           97.85       -27.38      32.05       
C           96.48       -27.76      32.08       
C           108.82      -40.04      34.48       
S           107.08      -39.97      34.86       
C           109.3       -38.88      33.96       
C           108.29      -37.88      33.99       
C           107.02      -38.25      34.49       
N           108.22      -36.56      33.59       
C           106.92      -36.12      33.92       
C           106.14      -37.22      34.38       
C           109.15      -35.83      32.67       
H           109.44      -36.6       31.98       
H           108.65      -35.02      32.17       
H           109.94444   -35.43643   33.30409    
H           106.55      -34.05      33.09       
H           110.34      -38.7       33.63       
C           106.16      -34.92      33.6        
S           104.46      -36.71      34.38       
C           104.85      -35.07      33.97       
C           114.03      -49.32      37.56       
C           114.73      -48.15      37.16       
C           112.76      -49.45      37.09       
C           112.14      -48.32      36.48       
C           112.8       -47.17      36.19       
C           114.15      -47.08      36.5        
N           110.78      -48.23      36.13       
C           110.56      -47.04      35.45       
C           111.81      -46.22      35.65       
O           109.59      -46.86      34.75       
C           109.79      -49.28      36.07       
C           111.89      -44.91      35.22       
C           110.89      -43.81      35.02       
C           111.58      -42.59      34.73       
N           112.94      -42.86      34.54       
C           113.2       -44.18      34.78       
C           109.51      -43.72      35.08       
O           114.33      -44.62      34.62       
C           114.04      -41.92      34.38       
H           114.68      -46.21      36.2        
H           112.17      -50.38      37.18       
H           115.8       -48.12      37.33       
H           111.5       -40.5       34.16       
H           108.91      -44.66      35.28       
H           107.76      -42.55      34.79       
H           110.2       -50.23      35.84       
H           109.06      -49.1       35.28       
H           109.18377   -49.28      36.97586    
H           113.66      -41.03      33.95       
H           114.46832   -41.59876   35.32944    
H           114.76      -42.44      33.71       
C           108.85      -42.5       34.85       
C           110.94      -41.37      34.54       
C           109.54      -41.3       34.64       
C           116.75      -56.28      39.92       
S           115.32      -55.89      39.05       
C           117.45      -55.15      40.23       
C           116.88      -53.9       39.81       
C           115.72      -54.16      39.05       
N           117.18      -52.56      39.81       
C           116.18      -51.93      39.05       
C           115.31      -52.9       38.65       
C           118.27      -51.87      40.34       
H           117.97      -50.87      40.35       
H           119.15      -51.97      39.76       
H           118.49935   -52.13519   41.37207    
H           116.45      -49.75      39.08       
H           118.32      -55.06      40.88       
C           115.9       -50.58      38.72       
S           114.11      -52.1       37.68       
C           114.74      -50.48      38.05       
C           118.95      -66.43      44.1        
C           117.68      -66.13      43.56       
C           119.94      -65.51      43.91       
C           119.64      -64.3       43.31       
C           118.32      -63.89      42.82       
C           117.34      -64.9       43.02       
N           120.55      -63.32      43.02       
C           119.94      -62.21      42.57       
C           118.45      -62.49      42.29       
O           120.66      -61.24      42.36       
C           122.03      -63.45      43.29       
C           117.56      -61.64      41.72       
C           117.6       -60.27      41.32       
C           116.35      -59.86      40.73       
N           115.44      -60.92      40.7        
C           116.16      -62.06      41.19       
C           118.52      -59.25      41.38       
O           115.58      -63.16      41.26       
C           114.1       -61.07      40.02       
H           116.35      -64.77      42.74       
H           120.97      -65.78      44.1        
H           116.9       -66.87      43.72       
H           115.04      -58.36      39.87       
H           119.44      -59.47      41.81       
H           119.02      -57.19      41.01       
H           122.57      -62.79      42.57       
H           122.35      -64.45      43.11       
H           122.22948   -63.16503   44.32301    
H           114.21      -60.51      39.03       
H           113.23911   -60.84603   40.64992    
H           114.05      -62.12      39.64       
C           118.31      -57.94      40.92       
C           116.06      -58.61      40.24       
C           117.07      -57.66      40.3        
C           118.09      -72.55      48.75       
S           117.29      -72.08      47.25       
C           119.31      -71.85      48.94       
C           119.51      -70.87      47.87       
C           118.52      -70.9       46.87       
N           120.47      -69.91      47.48       
C           119.97      -69.21      46.42       
C           118.79      -69.85      45.98       
C           121.76      -69.59      48.13       
H           122.3       -68.91      47.48       
H           122.48      -70.44      48.16       
H           121.59323   -69.1912    49.13062    
H           121.08      -67.33      45.88       
H           119.86      -71.82      49.86       
C           120.19      -67.97      45.76       
S           118.09      -68.96      44.67       
C           119.23      -67.66      44.79       
C           111.81      -78.5       56.15       
C           113.2       -78.42      56.22       
C           111.26      -77.9       55.1        
C           112.03      -77.14      54.19       
C           113.44      -77.12      54.2        
C           113.99      -77.79      55.27       
N           111.53      -76.47      53.06       
C           112.63      -76.01      52.27       
C           113.94      -76.23      53.1        
O           112.44      -75.66      51.17       
C           110.15      -76.25      52.71       
C           115.2       -75.76      52.65       
C           115.79      -75.09      51.41       
C           117.18      -74.86      51.62       
N           117.59      -75.54      52.79       
C           116.49      -76.11      53.4        
C           115.25      -74.38      50.32       
O           116.65      -76.81      54.42       
C           118.94      -75.45      53.32       
H           115.08      -77.77      55.53       
H           110.24      -78.11      54.86       
H           113.69      -78.85      57.13       
H           118.98      -73.72      51.01       
H           114.22      -74.57      50.12       
H           115.43      -73.21      48.58       
H           109.52      -76.66      53.47       
H           109.95      -75.24      52.58       
H           109.83384   -76.71369   51.77558    
H           118.94      -75.61      54.38       
H           119.65613   -76.15136   52.8918     
H           119.3       -74.45      53.07       
C           115.96      -73.53      49.5        
C           117.93      -73.92      50.85       
C           117.31      -73.32      49.69       
C           106.77      -81.31      61.34       
S           106.67      -80.09      60.16       
C           107.89      -82.16      61.11       
C           108.74      -81.59      60.09       
C           108.16      -80.47      59.47       
N           109.99      -81.84      59.54       
C           110.25      -80.84      58.58       
C           109.12      -80.01      58.54       
C           110.95      -82.75      60.12       
H           111.82      -82.63      59.53       
H           110.61      -83.77      60.04       
H           111.16407   -82.58588   61.17609    
H           112.28      -80.86      57.65       
H           108.1       -83.06      61.65       
C           111.31      -80.39      57.76       
S           109.44      -78.69      57.52       
C           111.03      -79.29      57.04       
C           99.13       -83.8       69.25       
C           98.82       -83.15      68.07       
C           100.48      -84.1       69.47       
C           101.45      -83.62      68.62       
C           101.12      -82.92      67.42       
C           99.8        -82.64      67.25       
N           102.81      -83.73      68.66       
C           103.44      -83.12      67.62       
C           102.35      -82.65      66.61       
O           104.68      -83.15      67.6        
C           103.55      -84.14      69.88       
C           102.62      -82.12      65.38       
C           103.85      -82.14      64.52       
C           103.65      -81.33      63.35       
N           102.38      -80.86      63.34       
C           101.63      -81.38      64.42       
C           105.2       -82.67      64.6        
O           100.51      -80.95      64.65       
C           102.01      -79.56      62.66       
H           99.48       -82.15      66.37       
H           100.82      -84.63      70.36       
H           97.72       -82.92      67.8        
H           104.28      -80.48      61.52       
H           105.44      -83.2       65.46       
H           107.14      -82.8       63.7        
H           102.88      -84.54      70.61       
H           104.29      -84.87      69.6        
H           104.0791    -83.282     70.2947     
H           102.85      -79.03      62.31       
H           101.26685   -79.72757   61.88042    
H           101.47      -78.98      63.4        
C           106.17      -82.32      63.58       
C           104.53      -81.1       62.41       
C           105.85      -81.53      62.45       
C           93.18       -84.94      74.15       
S           93.14       -84.16      72.57       
C           94.31       -85.63      74.35       
C           95.27       -85.39      73.31       
C           94.81       -84.61      72.26       
N           96.61       -85.81      73.14       
C           97.02       -85.18      71.89       
C           95.92       -84.5       71.43       
C           97.53       -86.3       74.13       
H           98.45       -86.7       73.67       
H           97.02       -87.19      74.58       
H           97.6809     -85.48378   74.83648    
H           99.16       -85.46      71.5        
H           94.44       -86.12      75.3        
C           98.2        -85.01      71.19       
S           96.35       -83.66      69.99       
C           98.02       -84.23      70.1        
H           42.21       39.75       2.95        
H           92.49       -84.81      75.01       
