512

C           40.8        24.94       39.22       
C           39.62       24.86       38.48       
C           41.69       25.93       38.77       
C           41.35       26.75       37.78       
C           40.09       26.81       37.09       
C           39.21       25.79       37.55       
N           42.18       27.75       37.31       
C           41.54       28.5        36.34       
C           40.15       27.88       36.09       
O           42.19       29.37       35.82       
C           43.38       28.23       37.9        
C           39.29       28.33       35.1        
C           39.25       29.54       34.26       
C           38.27       29.37       33.3        
N           37.55       28.15       33.54       
C           38.18       27.42       34.56       
C           39.99       30.74       34.26       
O           37.83       26.33       34.84       
C           36.44       27.66       32.73       
H           38.2        25.71       37.06       
H           42.65       25.97       39.27       
H           38.84       24.06       38.76       
H           37.47       30.13       31.44       
H           40.77       30.97       35.02       
H           40.27       32.71       33.46       
H           43.83       27.51       38.63       
H           44.22       28.36       37.19       
H           43.23223    29.17995    38.41368    
H           36.59       27.62       31.62       
H           35.45522    28.06254    32.96721    
H           36.43       26.56       32.98       
C           39.73       31.79       33.39       
C           38.16       30.29       32.3        
C           38.8        31.6        32.35       
C           43.77       19.99       44.29       
S           44.17       21.63       44.02       
C           42.67       19.55       43.59       
C           42.15       20.59       42.74       
C           42.91       21.74       42.84       
N           41.17       20.56       41.76       
C           41.22       21.91       41.3        
C           42.29       22.57       41.89       
C           40.26       19.53       41.3        
H           39.66       19.94       40.43       
H           39.62       19.24       42.07       
H           40.83332    18.68435    40.92017    
H           39.77       22.43       39.52       
H           42.45       18.45       43.7        
C           40.5        22.71       40.28       
S           42.49       24.13       41.22       
C           41.03       23.98       40.25       
C           50.67       14.95       51.77       
C           50.26       16.27       51.75       
C           50.1        14.18       50.64       
C           49.36       14.81       49.68       
C           48.98       16.14       49.66       
C           49.42       16.86       50.77       
N           48.78       14.1        48.64       
C           47.96       14.93       47.94       
C           48.17       16.36       48.46       
O           47.32       14.56       46.98       
C           48.48       12.66       48.66       
C           47.69       17.53       47.87       
C           46.56       17.85       46.95       
C           46.59       19.26       46.72       
N           47.57       19.82       47.52       
C           48.3        18.91       48.2        
C           45.46       17.14       46.38       
O           49.26       19.33       48.87       
C           47.66       21.29       47.72       
H           49.26       17.84       50.84       
H           50.33       13.14       50.55       
H           50.64       16.94       52.52       
H           46.13       20.95       45.45       
H           45.29       16.13       46.61       
H           43.65       17.44       45.37       
H           48.48       12.32       47.65       
H           49.26       12.02       49.2        
H           47.60561    12.4183     49.26425    
H           47.46       21.83       46.81       
H           47.04741    21.66641    48.53924    
H           48.69       21.53       48.0        
C           44.57       17.9        45.59       
C           45.86       19.96       45.76       
C           44.74       19.24       45.17       
C           56.27       11.81       56.35       
S           55.31       11.06       55.08       
C           55.92       13.1        56.46       
C           54.92       13.47       55.45       
C           54.39       12.47       54.73       
N           54.34       14.69       55.16       
C           53.3        14.48       54.23       
C           53.34       13.1        53.93       
C           54.41       15.91       55.91       
H           53.67       16.68       55.58       
H           55.41       16.47       55.76       
H           54.14054    15.73982    56.95237    
H           52.28       16.26       53.38       
H           56.35       13.78       57.16       
C           52.36       15.19       53.45       
S           52.2        12.73       52.74       
C           51.65       14.4        52.67       
C           63.18       6.4         63.43       
C           62.81       7.7         63.59       
C           62.65       5.77        62.32       
C           61.73       6.43        61.54       
C           61.38       7.78        61.66       
C           61.99       8.35        62.75       
N           61.21       5.92        60.35       
C           60.41       6.84        59.69       
C           60.51       8.16        60.51       
O           59.72       6.55        58.75       
C           61.76       4.8         59.57       
C           59.94       9.36        60.04       
C           59.05       9.7         58.91       
C           58.85       11.09       58.97       
N           59.48       11.62       60.12       
C           60.04       10.64       60.83       
C           58.47       9.11        57.79       
O           60.54       10.93       61.87       
C           59.38       13.04       60.52       
H           61.83       9.35        62.98       
H           62.93       4.71        62.18       
H           63.27       8.27        64.4        
H           57.84       12.88       58.2        
H           58.79       8.16        57.57       
H           57.13       9.21        56.1        
H           62.26       4.16        60.26       
H           61.0        4.11        59.25       
H           62.37628    5.18517     58.75763    
H           59.56       13.18       61.56       
H           60.0686     13.68556    59.97486    
H           58.36       13.38       60.43       
C           57.61       9.79        56.9        
C           58.02       11.84       58.14       
C           57.27       11.16       57.17       
C           67.72       3.13        69.13       
S           66.54       2.39        68.04       
C           67.71       4.49        68.96       
C           66.89       4.95        67.88       
C           66.13       3.92        67.33       
N           66.56       6.12        67.2        
C           65.64       5.9         66.18       
C           65.35       4.49        66.21       
C           67.26       7.32        67.39       
H           67.03       8.02        66.59       
H           68.38       7.23        67.38       
H           66.92955    7.74186     68.33918    
H           65.15       7.67        64.98       
H           68.31       5.08        69.54       
C           65.01       6.61        65.13       
S           64.18       4.19        65.01       
C           64.09       5.84        64.43       
C           74.23       -2.54       76.54       
C           72.87       -2.73       76.5        
C           74.66       -1.45       75.81       
C           73.84       -0.72       74.96       
C           72.51       -1.01       74.79       
C           72.04       -2.12       75.56       
N           74.15       0.44        74.27       
C           73.11       0.93        73.52       
C           71.9        -0.06       73.82       
O           73.21       1.88        72.81       
C           75.21       1.34        74.67       
C           70.68       0.12        73.13       
C           70.13       1.06        72.15       
C           68.92       0.51        71.6        
N           68.62       -0.67       72.28       
C           69.59       -0.96       73.27       
C           70.44       2.36        71.7        
O           69.39       -1.91       74.06       
C           67.44       -1.53       72.09       
H           71.05       -2.45       75.41       
H           75.72       -1.15       75.79       
H           72.41       -3.55       77.1        
H           67.32       0.58        70.16       
H           71.29       2.91        72.13       
H           69.96       4.08        70.45       
H           76.05       0.84        75.19       
H           75.65       1.83        73.78       
H           74.89936    2.11659     75.36893    
H           67.58       -2.56       72.46       
H           66.58748    -1.13314    72.6412     
H           67.17       -1.75       71.07       
C           69.63       3.06        70.79       
C           68.15       1.14        70.59       
C           68.52       2.4         70.16       
C           80.05       -7.42       78.44       
S           79.98       -5.79       77.74       
C           78.73       -7.89       78.77       
C           77.7        -6.94       78.54       
C           78.22       -5.75       78.02       
N           76.29       -6.72       78.67       
C           76.05       -5.51       78.04       
C           77.23       -4.84       77.73       
C           75.31       -7.72       79.2        
H           74.33       -7.26       78.99       
H           75.48       -7.89       80.25       
H           75.32401    -8.69344    78.70978    
H           73.86       -5.07       78.11       
H           78.65       -8.91       79.2        
C           74.82       -4.76       77.8        
S           76.89       -3.31       77.01       
C           75.16       -3.6        77.06       
C           89.83       -12.72      80.02       
C           89.75       -11.34      79.91       
C           88.65       -13.47      80.04       
C           87.51       -12.83      79.84       
C           87.35       -11.4       79.84       
C           88.53       -10.67      79.78       
N           86.25       -13.36      79.71       
C           85.27       -12.42      79.61       
C           85.88       -11.09      79.58       
O           84.15       -12.76      79.41       
C           86.06       -14.69      79.27       
C           85.08       -9.95       79.5        
C           83.66       -9.59       79.24       
C           83.59       -8.13       79.26       
N           84.8        -7.62       79.72       
C           85.74       -8.63       79.84       
C           82.45       -10.22      78.78       
O           86.81       -8.37       80.36       
C           85.0        -6.3        80.25       
H           88.45       -9.63       79.54       
H           88.62       -14.56      80.12       
H           90.62       -10.69      79.83       
H           82.48       -6.26       78.96       
H           82.47       -11.26      78.53       
H           80.45       -9.99       78.19       
H           86.92       -15.02      78.7        
H           85.18       -14.67      78.61       
H           85.89013    -15.36948   80.10519    
H           85.54       -6.28       81.19       
H           85.53477    -5.67254    79.53697    
H           84.02       -5.89       80.45       
C           81.33       -9.46       78.49       
C           82.49       -7.37       78.99       
C           81.31       -8.1        78.71       
C           96.58       -16.81      80.13       
S           95.02       -17.25      80.78       
C           96.49       -15.69      79.34       
C           95.17       -15.02      79.38       
C           94.28       -15.74      80.18       
N           94.66       -13.81      78.93       
C           93.35       -13.76      79.42       
C           93.1        -14.93      80.18       
C           95.38       -12.67      78.33       
H           95.71       -13.01      77.37       
H           94.76       -11.85      78.05       
H           96.2283     -12.46871   78.9842     
H           92.26       -11.94      78.8        
H           97.33       -15.31      78.87       
C           92.3        -12.84      79.35       
S           91.42       -14.93      80.68       
C           91.16       -13.29      80.03       
C           105.37      -23.74      81.22       
C           105.56      -22.33      81.03       
C           104.07      -24.2       81.12       
C           103.0       -23.34      80.77       
C           103.21      -21.99      80.44       
C           104.54      -21.47      80.59       
N           101.65      -23.7       80.6        
C           100.95      -22.63      80.14       
C           101.86      -21.39      80.21       
O           99.75       -22.63      79.69       
C           101.14      -25.03      80.35       
C           101.35      -20.07      80.07       
C           99.99       -19.5       80.08       
C           100.15      -18.1       79.91       
N           101.46      -17.75      79.73       
C           102.22      -18.86      79.91       
C           98.7        -19.92      80.38       
O           103.42      -18.85      79.7        
C           101.97      -16.6       79.01       
H           104.8       -20.44      80.38       
H           103.82      -25.2       81.38       
H           106.48      -21.88      81.1        
H           99.32       -16.11      79.76       
H           98.43       -20.95      80.6        
H           96.65       -19.4       80.55       
H           101.98      -25.77      80.02       
H           100.55      -25.07      79.36       
H           100.57695   -25.36079   81.22273    
H           103.04      -16.58      79.2        
H           101.7701    -16.6357    77.93908    
H           101.6       -15.78      79.6        
C           97.63       -19.03      80.38       
C           99.09       -17.17      79.96       
C           97.79       -17.64      80.12       
C           110.57      -29.25      82.98       
S           108.9       -29.28      82.41       
C           111.05      -28.0       82.99       
C           110.05      -27.07      82.59       
C           108.79      -27.61      82.28       
N           109.91      -25.67      82.38       
C           108.64      -25.4       82.0        
C           107.93      -26.57      81.86       
C           110.82      -24.65      82.73       
H           111.75      -25.1       82.81       
H           110.87      -23.79      81.98       
H           110.52982   -24.16636   83.66273    
H           108.13      -23.22      81.92       
H           111.99      -27.75      83.18       
C           107.79      -24.24      81.82       
S           106.26      -26.31      81.35       
C           106.51      -24.61      81.47       
C           115.06      -39.05      86.34       
C           115.87      -37.97      86.11       
C           113.67      -38.94      86.24       
C           113.16      -37.76      85.74       
C           113.94      -36.57      85.57       
C           115.27      -36.7       85.85       
N           111.86      -37.49      85.53       
C           111.64      -36.21      85.21       
C           113.03      -35.51      85.13       
O           110.5       -35.81      85.07       
C           110.76      -38.34      85.9        
C           113.27      -34.16      84.71       
C           112.35      -32.95      84.37       
C           113.11      -31.91      83.8        
N           114.48      -32.28      83.96       
C           114.65      -33.57      84.39       
C           111.0       -32.65      84.51       
O           115.7       -34.06      84.34       
C           115.58      -31.32      83.72       
H           115.88      -35.83      85.94       
H           113.01      -39.79      86.51       
H           116.91      -38.06      86.14       
H           113.24      -29.98      82.9        
H           110.43      -33.36      85.03       
H           109.35      -31.35      84.18       
H           110.96      -39.38      85.77       
H           110.01      -38.2       85.17       
H           110.40647   -38.17738   86.91817    
H           115.29      -30.6       83.05       
H           115.91351   -30.85876   84.64958    
H           116.49      -31.86      83.31       
C           110.42      -31.47      83.98       
C           112.59      -30.73      83.25       
C           111.2       -30.48      83.42       
C           116.91      -46.43      88.04       
S           115.7       -45.28      88.74       
C           117.8       -45.87      87.2        
C           117.43      -44.42      87.04       
C           116.28      -44.04      87.81       
N           117.9       -43.31      86.37       
C           116.95      -42.29      86.55       
C           116.0       -42.69      87.49       
C           119.12      -43.19      85.6        
H           119.53      -42.18      85.6        
H           118.93      -43.47      84.55       
H           119.943     -43.77683   86.00792    
H           117.28      -40.41      85.27       
H           118.56      -46.53      86.74       
C           116.73      -40.95      86.09       
S           114.83      -41.49      87.79       
C           115.65      -40.37      86.65       
C           116.49      -57.3       90.99       
C           115.29      -56.55      91.01       
C           117.56      -56.74      90.31       
C           117.45      -55.42      89.86       
C           116.33      -54.54      90.01       
C           115.15      -55.22      90.5        
N           118.49      -54.7       89.32       
C           118.1       -53.38      89.02       
C           116.73      -53.19      89.63       
O           118.8       -52.67      88.36       
C           119.71      -55.24      88.92       
C           116.15      -51.92      89.58       
C           116.59      -50.57      89.09       
C           115.49      -49.69      89.09       
N           114.36      -50.37      89.51       
C           114.65      -51.67      89.78       
C           117.83      -50.0       88.84       
O           113.85      -52.52      90.17       
C           113.02      -49.82      89.5        
H           114.25      -54.71      90.59       
H           118.52      -57.31      90.26       
H           114.41      -56.88      91.62       
H           114.72      -47.75      88.63       
H           118.7       -50.49      89.07       
H           118.9       -48.18      88.49       
H           120.02      -54.8       88.0        
H           119.64      -56.29      88.64       
H           120.49719   -55.19124   89.67236    
H           112.74      -49.38      88.54       
H           112.75742   -49.09792   90.27314    
H           112.32      -50.63      89.7        
C           117.91      -48.64      88.58       
C           115.57      -48.37      88.69       
C           116.81      -47.83      88.4        
C           115.11      -63.23      95.7        
S           114.32      -62.73      94.2        
C           116.28      -62.56      95.87       
C           116.5       -61.51      94.96       
C           115.46      -61.45      94.01       
N           117.44      -60.57      94.69       
C           116.95      -59.85      93.65       
C           115.81      -60.48      93.07       
C           118.53      -60.26      95.65       
H           119.17      -59.55      95.28       
H           119.21      -61.1       95.63       
H           118.22406   -60.09683   96.68338    
H           118.16      -57.96      93.05       
H           116.86      -62.79      96.71       
C           117.34      -58.72      92.86       
S           115.26      -59.69      91.63       
C           116.57      -58.56      91.72       
C           110.89      -70.92      102.75      
C           111.71      -69.86      103.22      
C           110.62      -70.96      101.37      
C           111.14      -70.05      100.45      
C           112.12      -69.09      100.87      
C           112.28      -68.98      102.32      
N           110.98      -69.98      99.12       
C           111.83      -69.09      98.56       
C           112.59      -68.33      99.64       
O           111.72      -68.97      97.35       
C           110.41      -71.1       98.28       
C           113.53      -67.32      99.4        
C           113.73      -66.38      98.24       
C           114.81      -65.57      98.57       
N           115.32      -65.82      99.86       
C           114.58      -66.81      100.44      
C           113.23      -66.23      96.93       
O           114.76      -67.06      101.62      
C           116.48      -65.14      100.46      
H           112.82      -68.17      102.69      
H           109.91      -71.66      100.99      
H           111.94      -69.78      104.24      
H           116.05      -63.88      98.11       
H           112.44      -66.86      96.51       
H           113.19      -65.12      95.15       
H           109.73      -71.65      98.97       
H           109.83      -70.55      97.45       
H           111.1853    -71.72993   97.84389    
H           117.15      -64.73      99.68       
H           116.19523   -64.43156   101.2379    
H           117.08      -65.93      100.95      
C           113.68      -65.24      96.14       
C           115.22      -64.52      97.79       
C           114.59      -64.34      96.58       
C           106.69      -74.68      108.06      
S           107.84      -73.35      108.35      
C           106.67      -75.21      106.83      
C           107.62      -74.55      106.01      
C           108.34      -73.51      106.74      
N           108.08      -74.64      104.66      
C           108.97      -73.59      104.55      
C           109.08      -72.83      105.76      
C           107.9       -75.71      103.78      
H           108.23      -75.39      102.8       
H           106.83      -75.87      103.63      
H           108.32172   -76.65523   104.12174   
H           109.55      -73.35      102.42      
H           105.98      -75.99      106.43      
C           109.63      -73.0       103.47      
S           110.06      -71.39      105.44      
C           110.24      -71.8       103.71      
C           101.06      -78.97      116.74      
C           100.67      -79.17      115.39      
C           102.11      -78.01      116.92      
C           102.8       -77.47      115.82      
C           102.5       -77.8       114.47      
C           101.35      -78.59      114.28      
N           103.85      -76.54      115.84      
C           104.31      -76.31      114.56      
C           103.42      -77.05      113.58      
O           105.3       -75.57      114.44      
C           104.19      -75.7       116.98      
C           103.51      -76.94      112.2       
C           104.34      -76.12      111.35      
C           104.19      -76.63      110.0       
N           103.26      -77.69      110.0       
C           102.91      -78.0       111.3       
C           105.16      -74.99      111.51      
O           102.36      -79.08      111.51      
C           102.7       -78.37      108.83      
H           101.01      -78.97      113.31      
H           102.49      -77.75      117.91      
H           99.9        -79.93      115.16      
H           104.61      -76.55      107.94      
H           105.16      -74.44      112.41      
H           106.61      -73.77      110.51      
H           103.97      -74.67      116.69      
H           103.62      -75.84      117.87      
H           105.22994   -75.85151   117.26925   
H           102.36      -79.43      109.09      
H           101.95859   -77.78796   108.2826    
H           103.48      -78.56      108.09      
C           105.83      -74.56      110.37      
C           104.83      -76.08      108.91      
C           105.76      -75.07      109.09      
C           98.02       -82.75      122.81      
S           98.33       -83.37      121.21      
C           98.18       -81.45      122.89      
C           98.65       -80.87      121.66      
C           98.8        -81.77      120.62      
N           99.01       -79.59      121.27      
C           99.39       -79.75      119.96      
C           99.28       -81.03      119.52      
C           99.33       -78.43      121.96      
H           99.61       -77.57      121.33      
H           100.18      -78.69      122.53      
H           98.5209     -78.26114   122.6706    
H           100.14      -77.83      119.16      
H           97.86       -80.85      123.74      
C           99.94       -78.86      119.0       
S           99.85       -81.17      117.89      
C           100.33      -79.51      117.86      
H           39.09       32.02       31.4        
H           97.48       -83.33      123.55      
