512

C           41.52       23.39       37.67       
C           41.23       22.91       36.38       
C           40.86       24.58       38.03       
C           40.07       25.25       37.21       
C           39.81       24.8        35.9        
C           40.36       23.58       35.49       
N           39.42       26.44       37.47       
C           38.78       26.97       36.4        
C           38.95       25.92       35.32       
O           37.95       27.83       36.66       
C           39.91       27.29       38.49       
C           38.4        26.13       34.04       
C           37.9        27.4        33.41       
C           37.48       27.03       32.09       
N           37.72       25.71       31.9        
C           38.4        25.06       32.94       
C           37.8        28.77       33.75       
O           38.7        23.87       32.92       
C           37.21       24.81       30.8        
H           40.12       23.1        34.55       
H           41.06       24.88       39.0        
H           41.69       21.97       36.0        
H           36.76       27.79       30.22       
H           38.15       29.06       34.7        
H           37.02       30.72       33.26       
H           39.06       27.8        38.98       
H           40.4        26.65       39.28       
H           40.63402    28.04298    38.17867    
H           37.7        25.15       29.91       
H           36.15834    24.98901    30.57624    
H           37.32       23.78       31.16       
C           37.2        29.71       32.92       
C           36.97       27.99       31.23       
C           36.78       29.33       31.64       
C           46.74       20.73       42.75       
S           45.92       22.27       42.7        
C           46.62       20.05       41.57       
C           45.61       20.57       40.77       
C           45.16       21.87       41.21       
N           44.86       20.1        39.7        
C           44.01       21.17       39.38       
C           44.19       22.22       40.22       
C           44.88       18.69       39.25       
H           44.19       18.59       38.44       
H           44.65       18.07       40.11       
H           45.85817    18.37584    38.88586    
H           42.86       20.66       37.56       
H           46.93       19.03       41.52       
C           43.01       21.37       38.35       
S           43.13       23.51       39.84       
C           42.43       22.64       38.5        
C           52.78       17.7        51.89       
C           52.12       18.94       51.92       
C           52.83       17.03       50.71       
C           52.08       17.5        49.65       
C           51.28       18.73       49.67       
C           51.44       19.46       50.86       
N           51.84       16.88       48.45       
C           51.15       17.69       47.62       
C           50.62       18.87       48.33       
O           51.04       17.48       46.4        
C           52.41       15.63       48.15       
C           49.9        19.81       47.6        
C           49.13       19.82       46.33       
C           48.66       21.14       46.02       
N           49.06       21.94       47.13       
C           49.71       21.25       48.1        
C           48.75       18.86       45.42       
O           50.13       21.88       49.09       
C           48.75       23.38       47.17       
H           50.83       20.38       50.94       
H           53.41       16.13       50.6        
H           52.25       19.47       52.78       
H           47.45       22.43       44.77       
H           48.97       17.81       45.6        
H           47.81       18.37       43.67       
H           53.46       15.86       47.9        
H           52.57       15.0        49.07       
H           51.83975    15.04531    47.42816    
H           48.91       23.73       46.12       
H           47.72273    23.61542    47.44822    
H           49.51       23.72       47.9        
C           47.97       19.18       44.26       
C           47.87       21.44       44.88       
C           47.54       20.43       43.95       
C           55.49       13.65       57.92       
S           55.99       13.51       56.27       
C           54.79       14.74       58.17       
C           54.38       15.45       57.01       
C           54.9        14.87       55.85       
N           53.54       16.51       56.67       
C           53.65       16.67       55.32       
C           54.33       15.57       54.74       
C           52.98       17.5        57.6        
H           52.21       18.09       57.08       
H           53.74       18.15       57.92       
H           52.50456    17.08133    58.48701    
H           52.47       18.28       54.6        
H           54.51       15.06       59.17       
C           53.16       17.51       54.35       
S           54.41       15.73       52.96       
C           53.39       17.15       53.09       
C           61.8        7.59        64.81       
C           60.41       7.42        64.74       
C           62.4        8.58        64.02       
C           61.61       9.3         63.19       
C           60.2        9.23        63.19       
C           59.63       8.26        64.0        
N           62.04       10.35       62.36       
C           60.97       10.95       61.69       
C           59.7        10.25       62.23       
O           61.07       11.96       60.97       
C           63.44       10.87       62.16       
C           58.42       10.72       61.88       
C           57.81       11.45       60.69       
C           56.4        11.62       60.93       
N           56.06       10.92       62.07       
C           57.15       10.33       62.69       
C           58.37       11.99       59.57       
O           57.01       9.73        63.73       
C           54.7        10.52       62.47       
H           58.57       8.13        64.15       
H           63.48       8.78        64.03       
H           59.82       6.87        65.46       
H           54.51       12.41       60.26       
H           59.4        12.05       59.56       
H           58.06       13.39       57.95       
H           63.4        11.93       62.33       
H           64.23       10.37       62.72       
H           63.74773    10.74118    61.12231    
H           54.67       9.44        62.3        
H           54.44294    10.92296    63.44961    
H           53.96       11.0        61.84       
C           57.58       12.78       58.74       
C           55.6        12.32       60.06       
C           56.2        12.85       58.92       
C           66.93       5.39        70.08       
S           67.18       5.6         68.33       
C           65.67       5.57        70.54       
C           64.82       5.8         69.39       
C           65.49       5.82        68.09       
N           63.43       5.93        69.22       
C           63.31       6.16        67.86       
C           64.54       6.13        67.16       
C           62.39       5.69        70.16       
H           61.43       5.93        69.66       
H           62.48       6.42        70.98       
H           62.3751     4.63954     70.45055    
H           61.25       6.63        67.34       
H           65.4        5.6         71.6        
C           62.24       6.45        66.91       
S           64.34       6.52        65.53       
C           62.62       6.79        65.7        
C           74.98       0.69        76.16       
C           73.78       1.07        76.65       
C           75.33       1.0         74.85       
C           74.44       1.81        74.06       
C           73.17       2.22        74.61       
C           72.87       1.8         75.91       
N           74.49       2.11        72.73       
C           73.44       2.94        72.39       
C           72.49       3.06        73.58       
O           73.41       3.53        71.31       
C           75.61       1.63        71.86       
C           71.28       3.7         73.57       
C           70.45       4.37        72.48       
C           69.15       4.63        73.01       
N           69.25       4.47        74.41       
C           70.49       4.03        74.83       
C           70.6        4.56        71.09       
O           70.93       4.0         75.97       
C           68.12       4.75        75.27       
H           71.95       1.98        76.35       
H           76.15       0.48        74.34       
H           73.56       0.86        77.67       
H           67.07       5.18        72.69       
H           71.46       4.16        70.54       
H           69.53       5.0         69.2        
H           76.2        0.85        72.32       
H           75.26       1.23        70.88       
H           76.40579    2.36296     71.72737    
H           68.15       4.21        76.17       
H           67.95072    5.81985     75.39188    
H           67.24       4.39        74.69       
C           69.41       4.9         70.28       
C           68.08       5.0         72.26       
C           68.17       5.14        70.84       
C           79.74       -5.1        77.99       
S           79.83       -3.85       76.74       
C           78.59       -5.11       78.64       
C           77.79       -3.98       78.23       
C           78.36       -3.18       77.24       
N           76.6        -3.38       78.62       
C           76.41       -2.23       77.91       
C           77.49       -2.09       77.04       
C           75.6        -3.95       79.44       
H           74.6        -3.6        79.28       
H           75.74       -3.73       80.48       
H           75.5212     -5.02459    79.27523    
H           74.55       -1.25       78.23       
H           78.32       -5.74       79.48       
C           75.46       -1.22       77.73       
S           77.36       -0.62       76.17       
C           75.82       -0.27       76.86       
C           89.7        -10.08      79.57       
C           89.48       -8.94       78.77       
C           88.57       -10.61      80.23       
C           87.31       -10.02      80.07       
C           87.08       -8.87       79.35       
C           88.24       -8.3        78.75       
N           86.08       -10.49      80.56       
C           85.08       -9.71       80.04       
C           85.66       -8.5        79.36       
O           83.95       -9.97       80.37       
C           85.91       -11.66      81.38       
C           84.98       -7.47       78.8        
C           83.49       -7.18       78.59       
C           83.41       -5.96       77.87       
N           84.63       -5.36       77.68       
C           85.58       -6.14       78.21       
C           82.25       -7.72       79.02       
O           86.76       -5.73       78.26       
C           84.96       -4.46       76.58       
H           88.09       -7.5        78.09       
H           88.73       -11.56      80.77       
H           90.26       -8.48       78.24       
H           82.26       -4.3        77.32       
H           82.16       -8.6        79.63       
H           80.12       -7.61       79.03       
H           86.47       -12.49      81.0        
H           84.88       -11.94      81.38       
H           86.22004    -11.45091   82.40384    
H           85.75       -3.75       76.93       
H           85.07178    -4.98909    75.6336     
H           84.18       -3.75       76.62       
C           81.03       -7.07       78.79       
C           82.21       -5.34       77.7        
C           81.0        -5.81       78.23       
C           96.71       -13.4       80.69       
S           95.19       -13.64      81.54       
C           96.6        -12.46      79.72       
C           95.32       -11.93      79.7        
C           94.38       -12.49      80.59       
N           94.61       -11.07      78.82       
C           93.26       -11.12      79.23       
C           93.07       -11.95      80.3        
C           95.19       -10.38      77.67       
H           95.7        -11.09      76.99       
H           94.43       -9.97       77.01       
H           95.96907    -9.71635    78.04511    
H           92.07       -9.74       78.07       
H           97.3        -12.28      78.95       
C           92.08       -10.48      78.83       
S           91.37       -12.01      80.83       
C           90.99       -10.74      79.61       
C           105.13      -21.01      81.67       
C           105.39      -19.67      81.44       
C           103.83      -21.28      81.91       
C           102.88      -20.27      81.91       
C           103.12      -18.91      81.59       
C           104.48      -18.63      81.3        
N           101.51      -20.42      82.11       
C           100.78      -19.22      82.08       
C           101.77      -18.16      81.58       
O           99.5        -19.09      82.06       
C           100.74      -21.63      82.32       
C           101.35      -16.86      81.19       
C           100.05      -16.1       81.3        
C           100.13      -14.91      80.55       
N           101.46      -14.72      80.16       
C           102.25      -15.83      80.46       
C           98.8        -16.32      81.88       
O           103.33      -16.16      79.94       
C           102.16      -13.46      79.81       
H           104.86      -17.66      81.17       
H           103.52      -22.3       82.02       
H           106.46      -19.38      81.31       
H           99.36       -12.9       80.14       
H           98.6        -17.19      82.54       
H           96.83       -15.68      82.11       
H           101.3       -22.53      81.87       
H           99.8        -21.54      81.9        
H           100.62858   -21.89462   83.37151    
H           103.22      -13.73      80.05       
H           102.02477   -13.08435   78.79575    
H           101.79      -12.7       80.4        
C           97.83       -15.37      81.68       
C           99.15       -13.93      80.52       
C           97.86       -14.25      80.96       
C           109.27      -27.68      82.07       
S           107.66      -27.37      82.56       
C           109.86      -26.66      81.39       
C           109.03      -25.53      81.32       
C           107.83      -25.72      82.03       
N           109.13      -24.21      80.96       
C           107.96      -23.54      81.35       
C           107.18      -24.46      82.01       
C           110.12      -23.49      80.15       
H           109.47      -22.69      79.79       
H           110.99      -23.15      80.74       
H           110.47124   -24.17052   79.37435    
H           107.77      -21.37      80.66       
H           110.86      -26.74      81.05       
C           107.36      -22.18      81.18       
S           105.77      -23.62      82.46       
C           106.12      -22.08      81.75       
C           114.03      -37.31      85.04       
C           114.74      -36.26      84.46       
C           112.7       -37.05      85.26       
C           112.05      -35.96      84.81       
C           112.76      -34.88      84.25       
C           114.12      -35.08      84.07       
N           110.71      -35.64      84.92       
C           110.46      -34.34      84.5        
C           111.78      -33.84      83.86       
O           109.34      -33.93      84.37       
C           109.68      -36.56      85.4        
C           111.86      -32.69      83.12       
C           110.93      -31.47      83.01       
C           111.52      -30.55      82.1        
N           112.72      -31.13      81.63       
C           112.97      -32.42      82.16       
C           109.82      -30.95      83.7        
O           113.93      -33.07      81.81       
C           113.73      -30.49      80.74       
H           114.76      -34.32      83.6        
H           112.06      -37.81      85.78       
H           115.78      -36.44      84.29       
H           111.48      -28.76      80.95       
H           109.54      -31.4       84.63       
H           108.5       -29.29      84.06       
H           109.79      -37.63      85.16       
H           108.7       -36.24      85.01       
H           109.63585   -36.54528   86.48901    
H           113.2       -29.86      80.08       
H           114.44571   -29.86733   81.27678    
H           114.24      -31.28      80.09       
C           109.22      -29.72      83.37       
C           110.97      -29.37      81.69       
C           109.81      -28.98      82.36       
C           116.59      -44.25      87.34       
S           115.06      -43.41      87.63       
C           117.39      -43.56      86.55       
C           116.88      -42.26      86.18       
C           115.59      -42.04      86.69       
N           117.21      -41.24      85.34       
C           116.27      -40.27      85.51       
C           115.21      -40.81      86.22       
C           118.49      -41.13      84.65       
H           118.6       -40.18      84.21       
H           118.61      -41.73      83.74       
H           119.28703   -41.32564   85.36733    
H           116.76      -38.29      84.54       
H           118.19      -44.03      86.02       
C           116.01      -38.91      85.1        
S           113.82      -39.8       86.28       
C           114.7       -38.56      85.44       
C           117.91      -54.03      92.67       
C           116.63      -53.5       92.43       
C           119.02      -53.42      92.12       
C           118.85      -52.24      91.39       
C           117.55      -51.67      91.2        
C           116.5       -52.35      91.66       
N           119.89      -51.44      90.91       
C           119.29      -50.35      90.32       
C           117.75      -50.48      90.34       
O           119.99      -49.43      89.85       
C           121.38      -51.58      90.94       
C           116.93      -49.53      89.74       
C           117.2       -48.21      89.08       
C           115.93      -47.73      88.6        
N           115.0       -48.7       88.89       
C           115.43      -49.74      89.6        
C           118.26      -47.27      88.83       
O           114.75      -50.73      89.9        
C           113.63      -48.65      88.4        
H           115.53      -52.05      91.38       
H           120.06      -53.8       92.16       
H           115.73      -54.01      92.85       
H           114.64      -46.13      87.7        
H           119.26      -47.5       88.97       
H           118.8       -45.34      88.12       
H           121.78      -51.14      90.01       
H           121.73      -52.62      90.85       
H           121.79603   -51.2357    91.88682    
H           113.57      -48.16      87.47       
H           112.95698   -48.08438   89.04438    
H           113.27      -49.71      88.31       
C           118.0       -46.03      88.24       
C           115.64      -46.49      88.02       
C           116.73      -45.64      87.82       
C           116.78      -60.88      96.16       
S           115.71      -59.88      95.12       
C           118.01      -60.28      96.27       
C           118.16      -59.09      95.56       
C           117.0       -58.76      94.81       
N           119.13      -58.12      95.44       
C           118.6       -57.15      94.64       
C           117.37      -57.55      94.15       
C           120.44      -58.08      96.09       
H           120.89      -57.15      95.84       
H           121.07      -58.79      95.63       
H           120.35315   -58.12343   97.17567    
H           119.82      -55.34      94.39       
H           118.71      -60.72      96.94       
C           118.96      -55.85      94.12       
S           116.67      -56.34      93.15       
C           118.02      -55.29      93.35       
C           111.2       -68.75      101.79      
C           112.09      -67.86      102.38      
C           111.01      -68.72      100.42      
C           111.82      -67.96      99.65       
C           112.74      -67.05      100.23      
C           112.74      -66.98      101.6       
N           111.9       -67.82      98.26       
C           112.81      -66.86      97.89       
C           113.38      -66.27      99.15       
O           113.03      -66.45      96.74       
C           111.12      -68.57      97.32       
C           114.31      -65.24      99.17       
C           114.76      -64.23      98.14       
C           115.96      -63.63      98.63       
N           116.31      -64.17      99.82       
C           115.42      -65.16      100.2       
C           114.35      -63.73      96.9        
O           115.54      -65.86      101.13      
C           117.28      -63.54      100.65      
H           113.33      -66.29      102.11      
H           110.42      -69.51      99.97       
H           112.14      -67.63      103.5       
H           117.47      -61.98      98.43       
H           113.39      -64.0       96.54       
H           114.54      -62.17      95.38       
H           110.5       -69.25      97.85       
H           110.36      -67.97      96.81       
H           111.71436   -69.09444   96.5718     
H           117.99      -63.0       100.09      
H           116.78254   -62.85066   101.33223   
H           117.69      -64.34      101.2       
C           115.05      -62.66      96.23       
C           116.67      -62.57      97.98       
C           116.18      -62.11      96.77       
C           107.11      -72.69      107.02      
S           107.94      -71.22      107.2       
C           107.15      -73.19      105.75      
C           107.95      -72.38      104.9       
C           108.46      -71.27      105.5       
N           108.47      -72.54      103.61      
C           109.26      -71.44      103.37      
C           109.25      -70.67      104.51      
C           108.15      -73.58      102.65      
H           108.88      -73.37      101.83      
H           107.13      -73.55      102.32      
H           108.36936   -74.5534    103.08872   
H           110.03      -71.15      101.27      
H           106.72      -74.09      105.43      
C           109.92      -70.8       102.3       
S           110.33      -69.37      104.44      
C           110.5       -69.64      102.69      
C           99.5        -75.02      114.71      
C           99.31       -75.34      113.4       
C           100.79      -74.84      115.22      
C           101.87      -74.89      114.3       
C           101.7       -75.08      112.9       
C           100.38      -75.36      112.54      
N           103.21      -74.62      114.61      
C           103.92      -74.49      113.39      
C           103.02      -74.9       112.26      
O           105.04      -74.15      113.24      
C           103.65      -74.79      115.97      
C           103.48      -74.87      110.96      
C           104.57      -74.18      110.18      
C           104.35      -74.49      108.82      
N           103.27      -75.36      108.68      
C           102.76      -75.64      109.92      
C           105.66      -73.41      110.51      
O           101.83      -76.39      110.08      
C           103.2       -76.36      107.68      
H           100.24      -75.68      111.49      
H           100.96      -74.51      116.25      
H           98.37       -75.74      113.05      
H           104.99      -74.32      106.74      
H           105.82      -73.06      111.51      
H           107.24      -72.22      109.68      
H           103.23      -74.15      116.78      
H           103.33      -75.74      116.39      
H           104.73253   -74.84698   116.08395   
H           102.91      -77.33      108.12      
H           102.55788   -76.06686   106.84943   
H           104.2       -76.56      107.38      
C           106.43      -72.88      109.5       
C           105.22      -74.03      107.78      
C           106.29      -73.28      108.09      
C           93.76       -73.38      119.71      
S           95.3        -72.67      119.55      
C           93.49       -74.34      118.75      
C           94.62       -74.55      117.93      
C           95.71       -73.8       118.29      
N           94.95       -75.27      116.79      
C           96.31       -75.11      116.58      
C           96.81       -74.12      117.44      
C           94.04       -76.15      116.09      
H           94.59       -76.59      115.2       
H           93.23       -75.55      115.7       
H           93.8042     -77.0169    116.70723   
H           97.0        -76.31      114.8       
H           92.49       -74.72      118.57      
C           97.22       -75.6       115.57      
S           98.49       -73.79      116.93      
C           98.45       -74.98      115.65      
H           36.61       30.07       30.84       
H           93.07       -72.76      120.3       
