512

C           40.08       23.7        33.96       
C           39.5        23.26       32.88       
C           39.92       25.06       34.24       
C           39.18       25.87       33.5        
C           38.72       25.45       32.25       
C           38.89       24.08       31.98       
N           38.91       27.27       33.68       
C           38.14       27.78       32.64       
C           38.09       26.68       31.61       
O           37.96       28.96       32.52       
C           38.94       27.86       34.99       
C           37.5        26.86       30.43       
C           36.5        27.82       29.87       
C           36.31       27.51       28.5        
N           37.11       26.44       28.14       
C           37.84       25.95       29.2        
C           35.74       28.93       30.29       
O           38.69       25.09       29.09       
C           37.32       25.97       26.79       
H           38.6        23.64       31.1        
H           40.33       25.39       35.18       
H           39.76       22.18       32.6        
H           35.41       27.96       26.63       
H           35.66       29.14       31.29       
H           34.42       30.57       29.88       
H           39.73       27.52       35.69       
H           38.95       28.99       34.9        
H           37.96782    27.6684     35.44416    
H           37.2        26.84       26.05       
H           36.58564    25.21465    26.51024    
H           38.33       25.43       26.77       
C           34.96       29.69       29.44       
C           35.53       28.26       27.64       
C           34.88       29.39       28.12       
C           44.38       19.79       39.17       
S           43.52       21.25       39.32       
C           44.35       19.32       37.91       
C           43.53       20.08       37.03       
C           43.04       21.21       37.63       
N           43.09       19.98       35.76       
C           42.23       21.01       35.54       
C           42.25       21.86       36.64       
C           43.42       18.8        34.92       
H           42.82       18.84       33.99       
H           43.32       17.82       35.47       
H           44.4902     18.80738    34.71334    
H           41.43       21.09       33.57       
H           44.82       18.41       37.62       
C           41.43       21.57       34.54       
S           41.37       23.36       36.42       
C           40.86       22.76       34.84       
C           50.11       15.48       47.84       
C           49.26       16.63       48.0        
C           50.13       14.89       46.55       
C           49.4        15.46       45.54       
C           48.64       16.67       45.63       
C           48.61       17.21       46.95       
N           49.31       14.91       44.27       
C           48.62       15.82       43.45       
C           48.1        16.98       44.31       
O           48.59       15.71       42.28       
C           49.25       13.45       44.0        
C           47.35       18.05       43.82       
C           46.58       18.25       42.52       
C           45.96       19.55       42.55       
N           46.23       20.13       43.76       
C           47.02       19.36       44.58       
C           46.33       17.48       41.39       
O           47.55       19.84       45.55       
C           45.78       21.45       44.14       
H           48.01       18.07       47.09       
H           50.67       13.97       46.4        
H           49.14       17.12       48.97       
H           44.65       20.97       41.55       
H           46.62       16.47       41.41       
H           45.29       17.32       39.46       
H           49.9        13.17       43.15       
H           49.5        12.91       44.94       
H           48.19509    13.25944    43.80263    
H           46.08       22.14       43.34       
H           44.74957    21.52106    44.48822    
H           46.38       21.86       44.88       
C           45.54       17.96       40.32       
C           45.16       20.04       41.47       
C           45.03       19.25       40.35       
C           54.04       11.23       53.12       
S           53.94       11.04       51.34       
C           53.32       12.34       53.53       
C           52.67       13.03       52.49       
C           52.88       12.41       51.24       
N           51.93       14.2        52.36       
C           51.59       14.36       51.03       
C           52.14       13.24       50.36       
C           51.47       14.99       53.49       
H           50.68       15.74       53.32       
H           52.31       15.6        53.99       
H           50.96822    14.38641    54.2463     
H           50.51       16.15       50.57       
H           53.54       12.7        54.58       
C           50.81       15.23       50.21       
S           51.74       13.39       48.68       
C           50.71       14.76       48.94       
C           60.99       7.08        60.52       
C           59.62       6.94        60.67       
C           61.46       7.98        59.52       
C           60.58       8.58        58.7        
C           59.2        8.36        58.69       
C           58.77       7.49        59.71       
N           60.95       9.3         57.55       
C           59.79       9.45        56.75       
C           58.62       8.97        57.59       
O           59.84       9.98        55.65       
C           62.23       9.91        57.31       
C           57.29       9.24        57.29       
C           56.62       9.56        56.03       
C           55.26       9.88        56.29       
N           55.08       9.97        57.69       
C           56.22       9.47        58.33       
C           57.02       9.6         54.67       
O           56.31       9.45        59.58       
C           54.01       10.52       58.52       
H           57.73       7.22        59.8        
H           62.53       8.07        59.45       
H           59.17       6.38        61.4        
H           53.4        10.61       55.55       
H           58.02       9.43        54.36       
H           56.48       10.3        52.77       
H           62.98       9.73        58.09       
H           62.62       9.39        56.48       
H           62.14332    10.95742    57.02106    
H           53.64       9.92        59.31       
H           54.2991     11.47402    58.96087    
H           53.14       10.67       57.89       
C           56.08       10.07       53.71       
C           54.37       10.26       55.32       
C           54.8        10.37       54.02       
C           66.77       3.04        63.78       
S           66.72       4.74        63.37       
C           65.56       2.5         63.66       
C           64.53       3.31        63.13       
C           65.01       4.66        62.96       
N           63.2        3.17        62.75       
C           62.8        4.41        62.23       
C           63.89       5.32        62.38       
C           62.21       2.16        62.98       
H           61.42       2.36        62.27       
H           61.86       2.26        63.97       
H           62.64214    1.17121     62.82619    
H           60.87       4.41        61.34       
H           65.39       1.5         63.94       
C           61.73       4.99        61.59       
S           63.48       6.87        61.75       
C           61.85       6.32        61.32       
C           76.1        -1.04       68.88       
C           76.0        0.29        68.49       
C           74.96       -1.86       68.74       
C           73.8        -1.36       68.15       
C           73.72       0.0         67.66       
C           74.85       0.81        67.89       
N           72.57       -2.03       67.87       
C           71.74       -1.2        67.19       
C           72.39       0.17        66.98       
O           70.6        -1.49       66.93       
C           72.37       -3.45       67.79       
C           71.71       1.21        66.31       
C           70.35       1.39        65.66       
C           70.17       2.75        65.3        
N           71.36       3.45        65.6        
C           72.32       2.62        66.14       
C           69.23       0.62        65.35       
O           73.43       3.04        66.44       
C           71.57       4.85        65.61       
H           74.86       1.86        67.61       
H           74.99       -2.85       69.17       
H           76.78       1.02        68.58       
H           68.98       4.42        64.52       
H           69.24       -0.44       65.39       
H           67.34       0.43        64.47       
H           73.04       -3.97       68.41       
H           71.36       -3.77       68.07       
H           72.5948     -3.80828    66.78541    
H           72.33       5.28        66.32       
H           71.81973    5.32743     64.66248    
H           70.68       5.33        65.96       
C           68.13       1.14        64.66       
C           69.08       3.31        64.68       
C           68.01       2.49        64.31       
C           81.73       -4.12       73.26       
S           80.03       -4.55       73.12       
C           82.08       -3.07       72.39       
C           80.97       -2.62       71.66       
C           79.76       -3.27       71.93       
N           80.79       -1.68       70.63       
C           79.47       -1.75       70.31       
C           78.79       -2.72       71.05       
C           81.77       -1.14       69.72       
H           81.24       -0.48       69.04       
H           82.32       -1.94       69.16       
H           82.45345    -0.51234    70.29187    
H           78.99       -0.32       68.65       
H           83.09       -2.67       72.31       
C           78.62       -1.02       69.42       
S           77.14       -2.78       70.69       
C           77.3        -1.49       69.52       
C           89.4        -10.91      77.93       
C           89.5        -9.54       78.02       
C           88.27       -11.47      77.36       
C           87.37       -10.59      76.79       
C           87.51       -9.19       76.76       
C           88.61       -8.68       77.44       
N           86.2        -10.93      76.16       
C           85.52       -9.75       75.72       
C           86.34       -8.6        76.05       
O           84.55       -9.88       75.02       
C           85.74       -12.29      75.78       
C           86.0        -7.26       75.7        
C           84.73       -6.64       75.18       
C           84.98       -5.24       74.96       
N           86.25       -4.91       75.37       
C           86.83       -6.02       75.88       
C           83.42       -7.1        74.8        
O           88.01       -5.92       76.22       
C           86.83       -3.59       75.41       
H           88.77       -7.62       77.62       
H           88.14       -12.56      77.35       
H           90.32       -9.17       78.58       
H           84.17       -3.31       74.44       
H           83.15       -8.14       74.94       
H           81.44       -6.62       74.09       
H           86.6        -12.86      75.45       
H           85.11       -12.23      74.9        
H           85.20343    -12.82657   76.56249    
H           87.38       -3.5        76.36       
H           87.50353    -3.34895    74.58759    
H           85.98       -2.81       75.47       
C           82.39       -6.24       74.39       
C           83.93       -4.39       74.46       
C           82.66       -4.89       74.15       
C           94.66       -16.08      80.59       
S           93.0        -16.35      80.03       
C           94.99       -14.76      80.65       
C           93.94       -13.97      80.03       
C           92.81       -14.68      79.66       
N           93.76       -12.63      79.7        
C           92.48       -12.49      79.25       
C           91.86       -13.72      79.17       
C           94.74       -11.59      79.92       
H           95.75       -11.93      79.8        
H           94.69       -10.71      79.19       
H           94.63709    -11.18573   80.92701    
H           92.03       -10.48      78.76       
H           95.96       -14.44      80.93       
C           91.71       -11.48      78.72       
S           90.24       -13.55      78.57       
C           90.44       -11.85      78.38       
C           101.37      -24.46      84.06       
C           101.81      -23.18      84.03       
C           100.06      -24.72      83.63       
C           99.31       -23.67      83.2        
C           99.74       -22.32      83.23       
C           101.04      -22.08      83.65       
N           98.01       -23.79      82.74       
C           97.45       -22.53      82.45       
C           98.61       -21.56      82.67       
O           96.33       -22.43      82.0        
C           97.24       -25.0       82.69       
C           98.38       -20.18      82.31       
C           97.21       -19.38      81.85       
C           97.65       -18.1       81.46       
N           99.1        -18.05      81.61       
C           99.58       -19.27      82.12       
C           95.79       -19.43      81.78       
O           100.83      -19.47      82.2        
C           99.97       -16.94      81.45       
H           101.48      -21.12      83.81       
H           99.66       -25.68      83.49       
H           102.87      -23.03      84.41       
H           97.28       -16.15      80.72       
H           95.35       -20.3       82.22       
H           93.9        -18.48      81.6        
H           97.84       -25.83      82.3        
H           96.47       -24.97      81.91       
H           96.74882    -25.2183    83.63825    
H           100.71      -16.79      82.18       
H           100.36784   -16.80256   80.44455    
H           99.31       -16.08      81.56       
C           94.93       -18.36      81.49       
C           96.87       -17.04      81.07       
C           95.5        -17.19      81.02       
C           105.91      -30.63      85.68       
S           104.18      -30.41      85.75       
C           106.49      -29.58      85.03       
C           105.63      -28.49      84.91       
C           104.28      -28.8       85.14       
N           105.67      -27.19      84.43       
C           104.32      -26.71      84.44       
C           103.44      -27.75      84.84       
C           106.85      -26.47      83.99       
H           107.67      -27.12      83.98       
H           106.79      -26.15      82.9        
H           107.06577   -25.69324   84.72361    
H           104.2       -24.67      83.65       
H           107.57      -29.49      84.84       
C           103.67      -25.54      84.09       
S           101.8       -27.18      84.85       
C           102.3       -25.58      84.41       
C           110.76      -39.98      89.49       
C           111.52      -38.84      89.33       
C           109.36      -39.95      89.35       
C           108.76      -38.83      88.81       
C           109.55      -37.73      88.36       
C           110.92      -37.75      88.75       
N           107.43      -38.61      88.45       
C           107.24      -37.41      87.8        
C           108.61      -36.74      87.67       
O           106.13      -37.14      87.44       
C           106.31      -39.37      88.85       
C           108.79      -35.42      87.2        
C           107.83      -34.27      86.91       
C           108.53      -33.23      86.36       
N           109.88      -33.48      86.33       
C           110.11      -34.79      86.75       
C           106.52      -34.13      87.14       
O           111.23      -35.22      86.75       
C           110.91      -32.52      86.3        
H           111.55      -36.91      88.51       
H           108.85      -40.8       89.68       
H           112.55      -38.81      89.59       
H           108.4       -31.23      85.58       
H           105.87      -34.82      87.68       
H           104.76      -32.83      86.96       
H           106.44      -40.47      88.96       
H           105.49      -39.21      88.17       
H           105.97894   -39.06653   89.84318    
H           110.84      -31.82      85.49       
H           111.06037   -32.01159   87.25237    
H           111.8       -32.99      85.93       
C           105.85      -32.89      86.81       
C           107.87      -32.02      85.91       
C           106.52      -31.86      86.17       
C           113.23      -46.75      92.58       
S           111.78      -46.25      91.79       
C           114.13      -45.67      92.61       
C           113.62      -44.5       92.05       
C           112.37      -44.7       91.58       
N           114.07      -43.2       91.71       
C           113.01      -42.58      91.1        
C           111.93      -43.49      91.02       
C           115.36      -42.67      91.93       
H           115.42      -41.67      91.44       
H           116.19      -43.15      91.45       
H           115.46732   -42.46967   92.99604    
H           113.35      -40.38      90.9        
H           115.19      -45.81      93.04       
C           112.66      -41.24      90.73       
S           110.6       -42.7       90.17       
C           111.45      -41.14      90.09       
C           115.8       -57.4       95.28       
C           114.53      -57.06      94.82       
C           116.78      -56.42      95.59       
C           116.37      -55.1       95.38       
C           115.09      -54.7       94.78       
C           114.17      -55.76      94.52       
N           117.01      -53.91      95.7        
C           116.41      -52.82      95.14       
C           115.18      -53.22      94.51       
O           116.98      -51.78      95.19       
C           118.36      -53.93      96.31       
C           114.34      -52.32      93.8        
C           114.21      -50.81      93.67       
C           113.11      -50.52      92.77       
N           112.51      -51.64      92.39       
C           113.15      -52.74      92.92       
C           114.94      -49.74      94.2        
O           112.85      -53.94      92.72       
C           111.08      -51.75      92.08       
H           113.2       -55.48      94.18       
H           117.67      -56.61      96.12       
H           113.8       -57.86      94.66       
H           111.94      -49.16      91.69       
H           115.8       -49.88      94.87       
H           115.04      -47.77      94.45       
H           118.95      -53.01      96.05       
H           118.97      -54.69      95.89       
H           118.33284   -54.12014   97.38294    
H           110.88      -51.45      91.01       
H           110.4623    -51.2388    92.8184     
H           110.84      -52.85      92.05       
C           114.44      -48.51      93.92       
C           112.78      -49.24      92.38       
C           113.48      -48.18      92.94       
C           115.32      -64.54      98.3        
S           114.17      -63.34      98.1        
C           116.57      -64.11      98.02       
C           116.55      -62.79      97.53       
C           115.33      -62.17      97.51       
N           117.49      -61.9       97.03       
C           116.78      -60.7       96.66       
C           115.4       -60.88      96.96       
C           118.9       -62.08      96.77       
H           119.19      -61.4       95.99       
H           119.02      -63.09      96.38       
H           119.51515   -61.9332    97.65777    
H           118.08      -59.03      95.91       
H           117.45      -64.76      98.14       
C           117.06      -59.45      96.03       
S           114.47      -59.54      96.51       
C           115.91      -58.77      95.84       
C           111.88      -73.67      103.86      
C           113.01      -72.98      104.18      
C           111.17      -73.25      102.73      
C           111.64      -72.21      101.96      
C           112.8       -71.48      102.22      
C           113.44      -71.9       103.42      
N           111.05      -71.63      100.88      
C           111.82      -70.61      100.3       
C           113.03      -70.52      101.12      
O           111.53      -70.01      99.24       
C           109.62      -71.87      100.51      
C           114.07      -69.6       100.76      
C           114.12      -68.32      99.97       
C           115.45      -67.86      100.0       
N           116.18      -68.72      100.83      
C           115.45      -69.76      101.33      
C           113.22      -67.52      99.28       
O           115.92      -70.59      102.05      
C           117.61      -68.62      101.19      
H           114.29      -71.42      103.72      
H           110.24      -73.78      102.49      
H           113.57      -73.16      105.08      
H           116.91      -66.47      99.65       
H           112.21      -67.92      99.13       
H           112.92      -65.84      98.05       
H           109.26      -72.75      101.05      
H           109.01      -71.04      100.73      
H           109.4379    -72.17816   99.48045    
H           118.17      -68.0       100.44      
H           117.77831   -68.15898   102.16326   
H           118.02      -69.58      101.16      
C           113.66      -66.33      98.68       
C           115.86      -66.61      99.52       
C           114.92      -65.83      98.87       
C           109.03      -79.19      108.61      
S           110.26      -77.95      108.99      
C           108.64      -79.16      107.32      
C           109.34      -78.19      106.58      
C           110.15      -77.32      107.38      
N           109.26      -77.71      105.24      
C           110.01      -76.56      105.19      
C           110.61      -76.34      106.49      
C           108.37      -78.16      104.16      
H           108.49      -77.54      103.26      
H           107.27      -78.11      104.44      
H           108.5682    -79.20762   103.93349   
H           110.16      -75.67      103.21      
H           107.94      -79.86      106.95      
C           110.44      -75.62      104.22      
S           111.62      -74.89      106.36      
C           111.37      -74.78      104.62      
C           106.59      -87.39      115.96      
C           105.7       -86.8       115.05      
C           107.89      -86.84      116.06      
C           108.26      -85.85      115.07      
C           107.31      -85.32      114.11      
C           106.03      -85.79      114.26      
N           109.43      -85.02      115.03      
C           109.33      -84.1       113.98      
C           107.99      -84.32      113.3       
O           110.19      -83.28      113.72      
C           110.54      -85.27      115.97      
C           107.66      -83.61      112.12      
C           108.23      -82.35      111.48      
C           107.49      -82.12      110.26      
N           106.57      -83.15      110.11      
C           106.54      -83.99      111.29      
C           109.23      -81.39      111.67      
O           105.84      -85.01      111.25      
C           105.95      -83.67      108.86      
H           105.28      -85.36      113.74      
H           108.54      -87.06      116.96      
H           104.63      -87.07      115.12      
H           107.27      -81.08      108.43      
H           109.78      -81.42      112.62      
H           110.32      -79.74      110.98      
H           110.43      -84.49      116.77      
H           110.47      -86.25      116.44      
H           111.52556   -85.18671   115.51192   
H           105.62      -84.71      108.98      
H           105.07302   -83.10931   108.53652   
H           106.85      -83.66      108.14      
C           109.47      -80.44      110.73      
C           107.74      -81.12      109.37      
C           108.71      -80.21      109.64      
C           103.67      -93.64      119.62      
S           103.35      -92.77      118.15      
C           104.69      -92.98      120.3       
C           105.17      -91.81      119.62      
C           104.62      -91.58      118.37      
N           106.1       -90.75      119.77      
C           106.03      -89.9       118.64      
C           105.07      -90.36      117.8       
C           107.1       -90.68      120.75      
H           107.73      -89.77      120.61      
H           107.7       -91.55      120.93      
H           106.63734   -90.45969   121.71203   
H           107.39      -88.18      118.73      
H           105.14      -93.38      121.19      
C           106.64      -88.74      118.19      
S           104.77      -89.37      116.43      
C           106.18      -88.46      116.9       
H           34.7        30.3        27.58       
H           103.15      -94.6       119.92      
