512

C           33.4        18.66       41.9        
C           32.59       18.33       40.8        
C           33.15       19.84       42.63       
C           32.13       20.63       42.26       
C           31.2        20.25       41.24       
C           31.55       19.12       40.47       
N           31.75       21.89       42.79       
C           30.71       22.43       42.09       
C           30.19       21.38       41.12       
O           30.3        23.57       42.44       
C           32.3        22.53       43.97       
C           29.09       21.56       40.26       
C           28.27       22.75       39.92       
C           27.08       22.36       39.26       
N           27.12       20.96       39.12       
C           28.3        20.42       39.61       
C           28.36       24.13       40.22       
O           28.56       19.19       39.62       
C           26.01       20.23       38.63       
H           30.96       18.89       39.61       
H           33.75       20.15       43.5        
H           32.69       17.48       40.18       
H           25.21       22.84       38.27       
H           29.26       24.57       40.69       
H           27.51       26.03       40.06       
H           33.36       22.18       44.04       
H           32.37       23.64       43.92       
H           31.74112    22.26824    44.86846    
H           25.72       20.7        37.72       
H           25.19319    20.13603    39.34561    
H           26.44       19.22       38.37       
C           27.34       25.01       39.81       
C           26.1        23.22       38.82       
C           26.21       24.63       39.02       
C           39.41       14.31       44.33       
S           38.54       15.62       45.14       
C           38.9        14.08       43.08       
C           37.85       14.99       42.75       
C           37.52       15.91       43.77       
N           36.98       15.11       41.65       
C           36.15       16.17       42.02       
C           36.4        16.61       43.33       
C           36.88       14.43       40.4        
H           35.97       14.8        39.88       
H           36.86       13.37       40.52       
H           37.72001    14.71475    39.76643    
H           34.83       16.67       40.36       
H           39.29       13.37       42.42       
C           35.14       16.95       41.35       
S           35.33       17.88       43.77       
C           34.49       17.78       42.21       
C           47.25       8.6         49.86       
C           47.13       9.97        49.97       
C           46.4        7.93        48.95       
C           45.49       8.66        48.14       
C           45.34       10.09       48.3        
C           46.2        10.64       49.23       
N           44.52       8.15        47.26       
C           43.69       9.16        46.81       
C           44.16       10.5        47.45       
O           42.7        8.96        46.17       
C           44.68       6.87        46.57       
C           43.48       11.72       47.29       
C           42.51       12.17       46.29       
C           42.03       13.39       46.74       
N           42.81       13.9        47.81       
C           43.65       12.89       48.26       
C           41.88       11.64       45.13       
O           44.15       13.06       49.39       
C           42.86       15.22       48.38       
H           46.33       11.8        49.12       
H           46.36       6.84        48.87       
H           47.85       10.47       50.6        
H           41.05       15.2        46.37       
H           42.2        10.71       44.72       
H           40.43       11.96       43.57       
H           45.36       6.24        47.08       
H           43.73       6.34        46.51       
H           45.02219    7.04822     45.55057    
H           42.79       16.01       47.59       
H           42.03674    15.4755     49.04713    
H           43.85       15.34       48.89       
C           40.92       12.36       44.47       
C           41.09       14.16       46.1        
C           40.5        13.6        44.92       
C           51.48       3.85        54.5        
S           51.42       3.99        52.69       
C           50.57       4.75        55.0        
C           49.92       5.53        54.04       
C           50.23       5.26        52.75       
N           48.88       6.45        54.09       
C           48.68       6.94        52.78       
C           49.42       6.16        51.93       
C           48.28       7.04        55.28       
H           47.43       7.66        54.99       
H           49.01       7.64        55.8        
H           47.87087    6.2429      55.90075    
H           47.3        8.73        52.64       
H           50.4        4.74        56.08       
C           47.89       7.95        52.17       
S           49.18       6.66        50.27       
C           48.02       7.85        50.81       
C           59.44       -0.94       60.43       
C           58.3        -0.44       61.04       
C           59.48       -1.22       59.04       
C           58.31       -1.02       58.29       
C           57.07       -0.53       58.91       
C           57.13       -0.25       60.28       
N           58.11       -1.1        56.87       
C           56.85       -0.63       56.54       
C           56.11       -0.18       57.84       
O           56.44       -0.63       55.36       
C           59.07       -1.47       55.88       
C           54.89       0.52        57.86       
C           54.13       1.25        56.78       
C           52.96       1.73        57.34       
N           52.78       1.31        58.66       
C           53.91       0.62        59.06       
C           54.42       1.7         55.41       
O           53.92       0.19        60.23       
C           51.62       1.66        59.51       
H           56.25       0.04        60.71       
H           60.43       -1.37       58.51       
H           58.18       -0.27       62.15       
H           51.24       2.98        57.17       
H           55.36       1.45        54.95       
H           53.81       2.71        53.71       
H           60.0        -1.67       56.38       
H           58.78       -2.36       55.26       
H           59.24321    -0.65244    55.18022    
H           51.11       2.62        59.27       
H           50.89002    0.85206     59.46039    
H           52.07       1.76        60.53       
C           53.55       2.47        54.73       
C           52.1        2.6         56.64       
C           52.34       2.93        55.31       
C           66.18       -2.03       64.05       
S           65.87       -1.8        62.33       
C           65.05       -1.85       64.83       
C           63.91       -1.44       64.08       
C           64.2        -1.53       62.74       
N           62.55       -1.1        64.26       
C           62.01       -1.07       63.03       
C           62.99       -1.24       62.06       
C           61.77       -1.41       65.43       
H           60.74       -1.26       65.28       
H           61.99       -0.74       66.2        
H           62.00108    -2.40228    65.8174     
H           59.85       -0.77       63.21       
H           65.15       -1.97       65.87       
C           60.69       -0.9        62.57       
S           62.3        -1.12       60.51       
C           60.64       -0.92       61.19       
C           76.45       -1.86       68.76       
C           76.21       -1.68       67.4        
C           75.37       -2.33       69.51       
C           74.15       -2.56       68.93       
C           73.82       -2.28       67.6        
C           74.98       -1.91       66.88       
N           72.96       -2.87       69.58       
C           71.91       -3.13       68.61       
C           72.3        -2.45       67.34       
O           70.8        -3.57       68.89       
C           72.78       -2.66       71.01       
C           71.51       -2.29       66.17       
C           70.08       -2.44       65.81       
C           69.88       -2.06       64.48       
N           71.13       -1.71       63.9        
C           72.09       -1.67       64.91       
C           68.86       -2.8        66.41       
O           73.24       -1.41       64.64       
C           71.38       -1.52       62.52       
H           75.07       -1.82       65.77       
H           75.47       -2.52       70.57       
H           76.94       -1.34       66.73       
H           68.52       -1.48       62.89       
H           68.83       -2.96       67.45       
H           66.76       -3.0        66.34       
H           72.86       -3.69       71.42       
H           73.58       -2.05       71.42       
H           71.79719    -2.29057    71.30275    
H           72.41       -1.43       62.33       
H           70.95048    -2.30159    61.89332    
H           70.93       -0.55       62.23       
C           67.63       -2.81       65.81       
C           68.62       -1.93       63.89       
C           67.46       -2.26       64.57       
C           83.47       -2.49       72.13       
S           81.86       -2.85       72.65       
C           83.44       -1.69       71.03       
C           82.09       -1.49       70.59       
C           81.08       -2.05       71.38       
N           81.49       -0.91       69.52       
C           80.1        -1.06       69.64       
C           79.84       -1.77       70.78       
C           82.02       0.09        68.57       
H           81.13       0.29        68.0        
H           82.73       -0.25       67.83       
H           82.2813     0.95158     69.18441    
H           78.74       -0.65       67.78       
H           84.32       -1.36       70.56       
C           78.88       -0.99       68.84       
S           78.18       -2.11       70.99       
C           77.76       -1.59       69.39       
C           91.86       -8.56       76.27       
C           91.96       -7.2        75.99       
C           90.65       -9.17       75.99       
C           89.65       -8.43       75.4        
C           89.78       -7.14       74.87       
C           91.02       -6.48       75.32       
N           88.4        -8.94       74.94       
C           87.77       -8.08       74.05       
C           88.59       -6.8        74.09       
O           86.66       -8.33       73.58       
C           87.88       -10.29      75.17       
C           88.15       -5.62       73.5        
C           86.82       -5.04       73.18       
C           87.03       -3.77       72.68       
N           88.42       -3.46       72.64       
C           89.18       -4.52       73.14       
C           85.49       -5.44       73.26       
O           90.36       -4.41       73.3        
C           88.97       -2.1        72.66       
H           91.24       -5.52       75.03       
H           90.48       -10.19      76.14       
H           92.88       -6.73       76.34       
H           86.18       -2.02       71.79       
H           85.26       -6.4        73.68       
H           83.48       -4.88       73.16       
H           88.56       -11.02      75.02       
H           87.0        -10.51      74.49       
H           87.48091    -10.36569   76.18148    
H           89.52       -1.86       73.56       
H           89.55707    -1.92251    71.75892    
H           88.11       -1.43       72.66       
C           84.44       -4.61       72.9        
C           85.96       -2.94       72.26       
C           84.62       -3.28       72.53       
C           97.64       -13.5       78.25       
S           95.85       -13.63      78.33       
C           97.99       -12.22      77.91       
C           96.87       -11.4       77.63       
C           95.65       -12.05      77.76       
N           96.62       -10.12      77.18       
C           95.24       -9.93       77.1        
C           94.6        -11.14      77.4        
C           97.52       -9.48       76.32       
H           98.1        -10.23      75.86       
H           97.06       -8.83       75.61       
H           98.23518    -8.9093     76.91238    
H           94.59       -7.85       76.63       
H           99.02       -11.87      77.89       
C           94.33       -8.87       76.75       
S           92.94       -11.07      77.11       
C           93.04       -9.31       76.72       
C           103.98      -22.59      80.5        
C           104.46      -21.29      80.57       
C           102.67      -22.69      80.07       
C           101.94      -21.54      79.76       
C           102.45      -20.21      79.76       
C           103.75      -20.15      80.21       
N           100.61      -21.52      79.2        
C           100.16      -20.2       78.98       
C           101.34      -19.26      79.34       
O           99.15       -20.01      78.31       
C           99.72       -22.65      78.98       
C           101.27      -17.91      79.1        
C           100.12      -16.93      78.86       
C           100.7       -15.69      78.55       
N           102.12      -15.79      78.61       
C           102.51      -17.04      78.93       
C           98.73       -17.06      78.89       
O           103.7       -17.35      79.11       
C           102.98      -14.6       78.58       
H           104.3       -19.22      80.38       
H           102.14      -23.62      80.05       
H           105.45      -21.2       81.09       
H           100.35      -13.6       78.05       
H           98.23       -17.89      79.19       
H           96.9        -16.04      78.9        
H           100.33      -23.53      78.69       
H           99.01       -22.56      78.12       
H           99.09212    -22.83467   79.85164    
H           103.69      -14.53      79.37       
H           103.47503   -14.46564   77.61823    
H           102.4       -13.7       78.76       
C           98.0        -15.91      78.83       
C           99.93       -14.54      78.27       
C           98.56       -14.66      78.44       
C           107.54      -29.32      82.62       
S           105.97      -29.05      81.94       
C           108.22      -28.12      82.76       
C           107.44      -26.94      82.48       
C           106.18      -27.28      81.96       
N           107.48      -25.59      82.63       
C           106.36      -25.03      82.01       
C           105.52      -26.04      81.57       
C           108.57      -24.88      83.24       
H           109.51      -25.28      82.82       
H           108.59      -23.84      83.03       
H           108.50766   -24.92156   84.32742    
H           106.51      -22.85      81.81       
H           109.28      -28.12      83.14       
C           105.92      -23.72      81.63       
S           104.12      -25.42      80.73       
C           104.77      -23.74      80.95       
C           112.6       -39.37      83.72       
C           113.23      -38.18      84.01       
C           111.29      -39.4       83.24       
C           110.65      -38.13      83.07       
C           111.3       -36.87      83.4        
C           112.66      -36.91      83.9        
N           109.33      -37.84      82.59       
C           109.13      -36.47      82.59       
C           110.36      -35.74      83.1        
O           108.01      -36.08      82.27       
C           108.38      -38.8       82.07       
C           110.38      -34.36      83.31       
C           109.45      -33.22      82.89       
C           109.92      -32.07      83.62       
N           111.08      -32.36      84.33       
C           111.46      -33.66      84.1        
C           108.27      -33.0       82.1        
O           112.53      -33.99      84.37       
C           111.89      -31.46      85.11       
H           113.19      -36.02      84.14       
H           110.75      -40.33      83.03       
H           114.28      -38.18      84.18       
H           109.64      -30.03      84.14       
H           107.85      -33.82      81.55       
H           106.71      -31.71      81.41       
H           108.78      -39.46      81.3        
H           107.62      -38.26      81.56       
H           107.81266   -39.33232   82.83346    
H           111.72      -30.43      84.75       
H           111.58073   -31.42564   86.15464    
H           112.87      -31.9       85.2        
C           107.64      -31.78      82.08       
C           109.25      -30.82      83.57       
C           108.07      -30.68      82.78       
C           115.06      -45.96      86.95       
S           113.47      -45.54      86.38       
C           116.05      -45.08      86.58       
C           115.49      -43.91      85.91       
C           114.09      -44.04      85.8        
N           115.95      -42.72      85.4        
C           114.76      -42.12      84.91       
C           113.65      -42.89      85.14       
C           117.21      -42.02      85.76       
H           117.02      -40.92      85.7        
H           118.01      -42.26      85.08       
H           117.47485   -42.28485   86.78362    
H           115.27      -40.06      84.23       
H           117.1       -45.09      86.81       
C           114.51      -40.89      84.36       
S           112.24      -42.02      84.56       
C           113.19      -40.6       84.15       
C           117.01      -55.09      93.35       
C           115.82      -54.93      92.64       
C           118.08      -54.18      93.08       
C           117.77      -53.0       92.34       
C           116.56      -52.83      91.58       
C           115.63      -53.91      91.67       
N           118.73      -52.02      92.03       
C           118.16      -51.19      91.05       
C           116.66      -51.53      90.83       
O           118.79      -50.34      90.47       
C           119.96      -51.7       92.74       
C           115.7       -50.78      90.07       
C           115.88      -49.59      89.22       
C           114.57      -49.06      88.81       
N           113.57      -49.95      89.4        
C           114.16      -50.99      90.17       
C           116.89      -48.82      88.69       
O           113.5       -51.83      90.83       
C           112.16      -49.67      89.36       
H           114.72      -53.89      91.07       
H           119.0       -54.37      93.58       
H           115.01      -55.62      92.71       
H           113.27      -47.59      87.86       
H           117.85      -49.15      88.75       
H           117.52      -47.07      87.82       
H           120.36      -50.89      92.19       
H           120.61      -52.59      92.79       
H           119.70445   -51.35217   93.7409     
H           111.86      -49.25      88.39       
H           111.83245   -48.98641   90.14328    
H           111.66      -50.65      89.49       
C           116.64      -47.65      87.99       
C           114.28      -47.89      88.14       
C           115.33      -47.13      87.75       
C           117.08      -62.37      96.19       
S           116.4       -61.67      94.74       
C           117.92      -61.48      96.8        
C           117.86      -60.21      96.23       
C           116.94      -60.08      95.18       
N           118.41      -58.94      96.5        
C           117.87      -58.08      95.54       
C           116.94      -58.78      94.78       
C           119.54      -58.72      97.4        
H           119.88      -57.68      97.35       
H           120.4       -59.37      97.16       
H           119.12816   -58.7626    98.4083     
H           118.43      -55.92      95.67       
H           118.59      -61.78      97.61       
C           117.89      -56.68      95.16       
S           116.19      -57.83      93.54       
C           117.1       -56.42      94.05       
C           112.27      -71.56      100.42      
C           112.91      -70.59      101.17      
C           112.35      -71.47      99.02       
C           113.03      -70.42      98.39       
C           113.61      -69.36      99.14       
C           113.52      -69.5       100.56      
N           113.11      -70.07      97.01       
C           113.92      -68.92      96.86       
C           114.3       -68.4       98.22       
O           114.43      -68.51      95.78       
C           112.17      -70.59      95.94       
C           115.11      -67.29      98.4        
C           115.57      -66.16      97.54       
C           116.18      -65.23      98.41       
N           116.2       -65.73      99.73       
C           115.69      -66.94      99.79       
C           115.51      -65.71      96.18       
O           115.81      -67.59      100.83      
C           116.45      -65.0       100.99      
H           113.85      -68.73      101.22      
H           111.94      -72.28      98.43       
H           112.95      -70.68      102.28      
H           117.17      -63.42      98.81       
H           115.04      -66.29      95.39       
H           116.0       -64.18      94.71       
H           111.86      -71.6       96.32       
H           111.39      -69.92      95.62       
H           112.65288   -70.77895   94.98124    
H           117.09      -64.18      100.81      
H           115.61903   -64.51587   101.50303   
H           117.02      -65.66      101.59      
C           116.17      -64.55      95.77       
C           116.75      -64.06      98.05       
C           116.7       -63.66      96.7        
C           108.46      -76.52      105.17      
S           110.14      -75.89      105.17      
C           107.79      -76.16      104.04      
C           108.54      -75.25      103.19      
C           109.84      -75.05      103.68      
N           108.37      -74.54      101.98      
C           109.54      -73.92      101.76      
C           110.47      -74.16      102.78      
C           107.25      -74.57      101.07      
H           107.45      -74.01      100.19      
H           106.4       -74.16      101.46      
H           106.94529   -75.5712    100.76529   
H           109.51      -72.93      99.81       
H           106.78      -76.49      103.82      
C           110.12      -73.13      100.72      
S           112.04      -73.51      102.43      
C           111.37      -72.6       101.03      
C           103.92      -80.09      114.81      
C           103.28      -80.22      113.64      
C           105.27      -79.55      114.77      
C           105.83      -79.09      113.6       
C           105.28      -79.34      112.32      
C           103.93      -79.89      112.39      
N           107.17      -78.71      113.51      
C           107.34      -78.35      112.17      
C           106.25      -78.89      111.33      
O           108.38      -77.9       111.91      
C           108.14      -78.62      114.6       
C           106.17      -78.9       109.91      
C           107.01      -78.2       108.88      
C           106.38      -78.46      107.61      
N           105.38      -79.42      107.78      
C           105.21      -79.8       109.1       
C           108.11      -77.34      108.87      
O           104.31      -80.56      109.48      
C           104.53      -80.0       106.74      
H           103.31      -79.85      111.57      
H           105.85      -79.49      115.73      
H           102.28      -80.64      113.64      
H           106.46      -78.32      105.41      
H           108.56      -76.98      109.79      
H           109.32      -76.09      107.7       
H           108.16      -77.65      115.11      
H           107.95      -79.32      115.42      
H           109.12747   -79.02071   114.37102   
H           104.25      -81.0       107.16      
H           103.65685   -79.39229   106.5025    
H           105.18      -80.29      105.91      
C           108.51      -76.82      107.68      
C           106.84      -77.98      106.4       
C           107.93      -77.13      106.41      
C           99.1        -80.19      120.93      
S           98.78       -80.45      119.22      
C           100.4       -79.75      121.15      
C           101.12      -79.71      119.92      
C           100.4       -80.14      118.8       
N           102.44      -79.31      119.55      
C           102.48      -79.58      118.21      
C           101.27      -80.19      117.73      
C           103.39      -78.6       120.41      
H           104.29      -78.26      119.87      
H           103.72      -79.25      121.23      
H           102.90309   -77.73203   120.85457   
H           104.5       -79.09      117.46      
H           100.82      -79.44      122.15      
C           103.5       -79.48      117.28      
S           101.51      -80.57      116.08      
C           103.15      -80.14      116.08      
H           25.38       25.34       39.21       
H           98.42       -80.25      121.73      
