512

C           37.41       19.88       38.02       
C           36.33       19.35       37.36       
C           37.51       21.18       38.41       
C           36.5        22.01       37.91       
C           35.39       21.59       37.19       
C           35.34       20.2        36.96       
N           36.38       23.39       38.03       
C           35.18       23.87       37.56       
C           34.49       22.72       36.93       
O           34.94       25.06       37.57       
C           37.54       24.23       38.32       
C           33.3        22.8        36.2        
C           32.44       23.97       35.67       
C           31.18       23.5        35.2        
N           31.25       22.16       35.19       
C           32.38       21.65       35.77       
C           32.53       25.39       35.52       
O           32.52       20.46       36.11       
C           30.19       21.2        34.9        
H           34.63       19.73       36.29       
H           38.32       21.54       38.99       
H           36.22       18.3        37.28       
H           29.17       23.93       34.44       
H           33.47       25.8        35.83       
H           31.62       27.23       34.97       
H           38.5        23.69       38.17       
H           37.5        25.07       37.62       
H           37.48191    24.57855    39.35113    
H           29.54       21.66       34.17       
H           29.62811    20.87283    35.77484    
H           30.71       20.4        34.28       
C           31.52       26.18       35.03       
C           30.08       24.3        34.77       
C           30.3        25.64       34.67       
C           42.58       14.94       41.05       
S           41.96       16.51       41.61       
C           41.89       14.52       39.96       
C           40.96       15.46       39.43       
C           40.94       16.65       40.22       
N           40.07       15.69       38.39       
C           39.53       16.95       38.52       
C           40.01       17.56       39.68       
C           39.75       14.75       37.32       
H           38.77       15.13       36.92       
H           39.47       13.78       37.81       
H           40.5357     14.58012    36.58385    
H           38.19       17.54       36.71       
H           42.03       13.52       39.55       
C           38.63       17.8        37.72       
S           39.33       19.13       39.88       
C           38.43       18.96       38.41       
C           47.34       7.9         48.36       
C           46.99       9.18        48.68       
C           47.15       7.47        47.08       
C           46.56       8.3         46.15       
C           46.27       9.67        46.39       
C           46.51       10.03       47.68       
N           46.36       8.09        44.78       
C           45.77       9.2         44.18       
C           45.74       10.34       45.18       
O           45.51       9.23        43.02       
C           46.87       6.89        44.09       
C           45.05       11.58       44.94       
C           44.52       12.27       43.7        
C           44.15       13.58       44.08       
N           44.29       13.77       45.41       
C           44.81       12.65       46.01       
C           44.54       12.02       42.33       
O           45.04       12.61       47.23       
C           44.17       14.98       46.19       
H           46.35       11.05       47.92       
H           47.18       6.43        46.84       
H           47.12       9.45        49.74       
H           43.16       15.4        43.54       
H           44.88       11.11       41.98       
H           43.94       12.6        40.34       
H           47.01       6.0         44.67       
H           46.13       6.58        43.38       
H           47.74737    7.14561     43.49588    
H           44.33       15.78       45.5        
H           43.12188    15.06221    46.47772    
H           44.98       15.15       46.89       
C           44.07       12.94       41.4        
C           43.58       14.46       43.21       
C           43.36       14.06       41.89       
C           51.09       4.3         54.2        
S           51.44       4.53        52.5        
C           49.8        4.73        54.36       
C           49.14       5.2         53.16       
C           49.93       5.09        51.99       
N           47.92       5.85        52.77       
C           48.02       6.14        51.45       
C           49.26       5.74        50.92       
C           46.68       5.98        53.6        
H           45.79       6.33        53.02       
H           46.8        6.81        54.27       
H           46.38873    5.07066     54.12571    
H           46.27       7.36        50.86       
H           49.29       4.83        55.31       
C           47.18       6.89        50.56       
S           49.36       6.19        49.25       
C           47.87       7.11        49.46       
C           58.55       1.98        62.24       
C           57.28       2.47        62.54       
C           58.79       1.53        60.97       
C           57.76       1.64        60.05       
C           56.51       2.39        60.24       
C           56.32       2.81        61.57       
N           57.88       1.28        58.68       
C           56.77       1.75        58.01       
C           55.8        2.45        58.95       
O           56.67       1.38        56.83       
C           59.1        0.9         57.98       
C           54.5        2.86        58.58       
C           53.92       3.16        57.23       
C           52.56       3.4         57.48       
N           52.23       3.41        58.85       
C           53.36       3.07        59.6        
C           54.29       3.22        55.88       
O           53.34       3.01        60.79       
C           50.91       3.52        59.56       
H           55.44       3.3         61.8        
H           59.73       0.97        60.79       
H           57.12       2.79        63.5        
H           50.64       3.79        56.82       
H           55.26       3.22        55.56       
H           53.63       3.71        53.92       
H           59.91       0.63        58.65       
H           58.93       0.09        57.33       
H           59.46637    1.6974      57.33346    
H           50.2        4.17        59.04       
H           50.46959    2.53811     59.73328    
H           51.09       3.96        60.53       
C           53.29       3.64        54.95       
C           51.65       3.69        56.52       
C           51.98       3.78        55.19       
C           64.61       1.05        67.08       
S           64.52       1.13        65.36       
C           63.39       1.11        67.6        
C           62.35       1.3         66.66       
C           62.81       1.35        65.36       
N           60.96       1.39        66.61       
C           60.53       1.53        65.31       
C           61.68       1.46        64.5        
C           60.01       1.32        67.71       
H           59.05       1.64        67.33       
H           60.25       1.94        68.61       
H           59.92077    0.28647     68.0446     
H           58.31       1.51        65.02       
H           63.19       0.93        68.64       
C           59.3        1.63        64.62       
S           61.22       1.46        62.83       
C           59.53       1.73        63.31       
C           74.46       0.34        72.74       
C           74.19       1.28        71.75       
C           73.72       -0.85       72.64       
C           72.54       -0.82       71.87       
C           72.11       0.21        70.95       
C           73.11       1.22        70.89       
N           71.51       -1.75       71.98       
C           70.36       -1.33       71.28       
C           70.78       -0.19       70.43       
O           69.3        -1.9        71.3        
C           71.62       -3.03       72.65       
C           69.91       0.47        69.5        
C           68.47       0.33        69.09       
C           68.28       1.21        67.96       
N           69.44       1.9         67.66       
C           70.44       1.52        68.52       
C           67.32       -0.32       69.48       
O           71.52       2.01        68.41       
C           69.78       2.45        66.35       
H           72.88       2.15        70.47       
H           73.84       -1.6        73.37       
H           74.88       2.1         71.62       
H           66.97       1.92        66.36       
H           67.44       -0.93       70.35       
H           65.17       -0.46       69.33       
H           72.67       -3.34       72.54       
H           71.51       -3.05       73.75       
H           71.17799    -3.87257    72.11821    
H           70.32       3.39        66.46       
H           70.21142    1.71447     65.67105    
H           68.77       2.7         65.89       
C           66.05       -0.07       68.89       
C           67.1        1.3         67.29       
C           65.92       0.77        67.79       
C           81.38       -0.15       76.37       
S           80.22       -1.39       75.97       
C           80.87       1.12        76.23       
C           79.66       1.14        75.58       
C           79.16       -0.21       75.31       
N           78.72       2.03        75.09       
C           77.65       1.26        74.53       
C           77.87       -0.11       74.73       
C           78.9        3.46        74.99       
H           78.07       3.83        74.52       
H           79.76       3.62        74.32       
H           78.99422    3.93109     75.96842    
H           76.16       2.5         73.4        
H           81.47       1.98        76.45       
C           76.42       1.5         73.76       
S           76.47       -1.02       74.22       
C           75.69       0.41        73.54       
C           91.41       -4.41       79.49       
C           91.27       -3.05       79.39       
C           90.32       -5.22       79.29       
C           89.12       -4.68       78.94       
C           88.91       -3.26       78.83       
C           90.09       -2.43       79.09       
N           88.04       -5.44       78.56       
C           87.01       -4.64       78.17       
C           87.44       -3.16       78.46       
O           85.99       -5.09       77.6        
C           87.86       -6.89       78.63       
C           86.59       -2.06       78.21       
C           85.22       -1.86       77.66       
C           84.84       -0.5        77.93       
N           85.87       0.12        78.55       
C           86.97       -0.7        78.69       
C           84.26       -2.59       76.98       
O           87.83       -0.39       79.54       
C           86.12       1.5         78.87       
H           89.96       -1.4        78.96       
H           90.44       -6.31       79.29       
H           92.19       -2.47       79.59       
H           83.38       1.07        77.91       
H           84.41       -3.61       76.66       
H           82.35       -2.68       75.95       
H           88.72       -7.43       78.87       
H           87.72       -7.25       77.6        
H           86.9723     -7.19537    79.18393    
H           86.47       1.56        79.92       
H           86.70644    1.98632     78.09046    
H           85.15       1.97        78.86       
C           83.04       -2.05       76.55       
C           83.54       0.04        77.58       
C           82.72       -0.71       76.77       
C           97.8        -8.82       80.79       
S           96.12       -9.23       81.09       
C           97.97       -7.54       80.46       
C           96.72       -6.84       80.28       
C           95.58       -7.66       80.47       
N           96.34       -5.54       79.97       
C           94.92       -5.56       79.85       
C           94.49       -6.84       80.17       
C           97.21       -4.42       79.71       
H           96.5        -3.59       79.45       
H           97.89       -4.09       80.57       
H           97.80233    -4.52331    78.80084    
H           94.03       -3.54       79.46       
H           98.87       -7.04       80.3        
C           93.91       -4.57       79.71       
S           92.76       -6.81       80.1        
C           92.7        -5.05       79.71       
C           104.57      -17.65      81.59       
C           105.18      -16.43      81.81       
C           103.25      -17.73      81.25       
C           102.6       -16.55      81.1        
C           103.15      -15.26      81.31       
C           104.53      -15.23      81.64       
N           101.26      -16.44      80.66       
C           100.92      -15.1       80.64       
C           102.08      -14.23      81.11       
O           99.99       -14.77      79.95       
C           100.66      -17.38      79.68       
C           101.87      -12.89      81.27       
C           100.68      -12.05      81.31       
C           101.07      -10.65      81.52       
N           102.48      -10.61      81.7        
C           102.93      -11.9       81.73       
C           99.3        -12.16      81.07       
O           104.15      -12.01      81.86       
C           103.16      -9.38       82.02       
H           105.03      -14.35      82.02       
H           102.82      -18.66      81.0        
H           106.16      -16.44      82.12       
H           100.62      -8.56       81.45       
H           98.91       -13.1       80.86       
H           97.41       -11.38      80.62       
H           101.33      -18.16      79.37       
H           100.46      -16.78      78.81       
H           99.71778    -17.77783   80.05689    
H           103.74      -9.48       82.94       
H           103.83527   -8.99735    81.2547     
H           102.42      -8.68       82.39       
C           98.4        -11.12      80.99       
C           100.17      -9.57       81.37       
C           98.82       -9.81       81.11       
C           107.82      -24.76      81.93       
S           106.14      -24.3       82.22       
C           108.64      -23.67      81.78       
C           107.89      -22.52      81.7        
C           106.53      -22.61      81.91       
N           108.16      -21.24      81.47       
C           107.04      -20.42      81.59       
C           105.93      -21.27      81.87       
C           109.51      -20.78      81.38       
H           110.22      -21.61      81.22       
H           109.76      -20.14      80.54       
H           109.83338   -20.33712   82.32201    
H           107.33      -18.27      81.09       
H           109.75      -23.77      81.74       
C           106.66      -19.09      81.44       
S           104.46      -20.33      82.11       
C           105.38      -18.84      81.73       
C           111.44      -34.47      85.77       
C           112.27      -33.4       85.38       
C           110.04      -34.42      85.51       
C           109.62      -33.34      84.81       
C           110.4       -32.26      84.38       
C           111.74      -32.28      84.72       
N           108.28      -33.03      84.48       
C           108.16      -31.78      83.86       
C           109.55      -31.3       83.67       
O           107.09      -31.36      83.44       
C           107.07      -33.79      84.7        
C           109.87      -30.08      83.0        
C           109.09      -28.82      82.71       
C           109.93      -27.83      82.21       
N           111.2       -28.45      81.85       
C           111.26      -29.76      82.41       
C           107.74      -28.44      82.84       
O           112.2       -30.44      82.37       
C           112.38      -27.75      81.48       
H           112.34      -31.48      84.59       
H           109.38      -35.19      85.86       
H           113.31      -33.22      85.72       
H           110.19      -25.75      81.54       
H           107.02      -29.12      83.26       
H           106.33      -26.8       82.98       
H           107.22      -34.77      84.27       
H           106.15      -33.49      84.19       
H           106.81582   -33.83236   85.7591     
H           112.08      -27.08      80.76       
H           112.75626   -27.1229    82.28826    
H           113.05      -28.46      81.11       
C           107.35      -27.09      82.68       
C           109.5       -26.51      81.91       
C           108.22      -26.15      82.14       
C           113.55      -40.36      90.46       
S           112.0       -40.05      89.66       
C           114.54      -39.5       90.11       
C           114.03      -38.41      89.28       
C           112.68      -38.61      88.96       
N           114.56      -37.48      88.4        
C           113.5       -36.81      87.81       
C           112.32      -37.51      88.12       
C           115.92      -37.31      87.89       
H           116.01      -36.3       87.6        
H           116.06      -37.92      87.03       
H           116.64067   -37.56436   88.6672     
H           114.06      -35.04      86.53       
H           115.56      -39.67      90.52       
C           113.31      -35.68      86.97       
S           110.94      -36.88      87.24       
C           112.02      -35.58      86.58       
C           114.78      -49.11      97.42       
C           113.74      -49.03      96.53       
C           115.76      -48.15      97.35       
C           115.58      -47.08      96.51       
C           114.44      -46.85      95.7        
C           113.54      -47.95      95.73       
N           116.6       -46.13      96.36       
C           116.15      -45.2       95.45       
C           114.72      -45.56      95.03       
O           116.83      -44.26      95.14       
C           117.56      -45.78      97.37       
C           113.91      -44.89      94.08       
C           114.09      -43.72      93.15       
C           112.81      -43.44      92.52       
N           111.79      -44.36      92.87       
C           112.37      -45.24      93.82       
C           115.09      -42.75      92.85       
O           111.61      -46.06      94.33       
C           110.33      -44.18      92.79       
H           112.68      -47.96      95.04       
H           116.66      -48.26      98.02       
H           113.09      -49.89      96.32       
H           111.65      -42.18      91.3        
H           116.07      -42.86      93.26       
H           115.8       -41.06      91.83       
H           118.3       -45.11      96.94       
H           118.02      -46.77      97.61       
H           117.0754    -45.38539   98.26305    
H           110.15      -43.86      91.76       
H           109.95384   -43.39982   93.45176    
H           109.9       -45.15      93.01       
C           114.95      -41.74      91.89       
C           112.62      -42.41      91.63       
C           113.71      -41.47      91.32       
C           114.33      -55.68      101.44      
S           114.0       -55.41      99.75       
C           115.13      -54.77      102.0       
C           115.16      -53.62      101.17      
C           114.59      -53.8       99.86       
N           115.7       -52.31      101.27      
C           115.27      -51.6       100.09      
C           114.76      -52.6       99.2        
C           116.34      -51.64      102.43      
H           116.58      -50.61      102.29      
H           117.29      -52.16      102.67      
H           115.7221    -51.74532   103.32174   
H           115.94      -49.42      99.95       
H           115.46      -54.84      103.07      
C           115.45      -50.28      99.53       
S           114.38      -51.75      97.7        
C           115.01      -50.25      98.26       
C           109.81      -64.89      105.7       
C           110.41      -63.94      106.58      
C           109.77      -64.65      104.34      
C           110.34      -63.5       103.86      
C           111.01      -62.57      104.69      
C           110.97      -62.76      106.06      
N           110.36      -63.13      102.47      
C           111.02      -61.87      102.37      
C           111.56      -61.56      103.81      
O           111.2       -61.38      101.27      
C           109.47      -63.87      101.57      
C           112.37      -60.41      103.91      
C           112.74      -59.26      103.1       
C           113.64      -58.49      103.82      
N           114.0       -59.13      105.03      
C           113.26      -60.26      105.12      
C           112.25      -58.67      101.88      
O           113.27      -60.98      106.13      
C           115.22      -59.0       105.82      
H           111.27      -62.05      106.69      
H           109.35      -65.39      103.67      
H           110.2       -64.07      107.59      
H           114.89      -56.75      103.86      
H           111.56      -59.21      101.27      
H           112.35      -57.13      100.53      
H           109.86      -64.84      101.22      
H           108.45      -64.09      102.06      
H           109.21308   -63.27283   100.69508   
H           116.08      -58.8       105.15      
H           115.1916    -58.24024   106.60106   
H           115.31      -59.97      106.25      
C           112.76      -57.5       101.43      
C           114.17      -57.33      103.28      
C           113.78      -56.88      102.03      
C           106.67      -71.28      109.13      
S           107.56      -69.91      109.87      
C           106.8       -71.35      107.75      
C           107.5       -70.17      107.31      
C           107.95      -69.27      108.33      
N           107.87      -69.56      106.08      
C           108.29      -68.3       106.36      
C           108.44      -68.11      107.75      
C           107.97      -70.22      104.8       
H           108.31      -69.52      104.01      
H           106.97      -70.61      104.55      
H           108.81157   -70.9118    104.76434   
H           108.76      -67.28      104.54      
H           106.48      -72.2       107.17      
C           108.7       -67.22      105.53      
S           108.97      -66.47      107.99      
C           109.13      -66.13      106.27      
C           100.67      -78.2       115.5       
C           100.54      -78.15      114.1       
C           101.78      -77.57      116.07      
C           102.61      -76.81      115.25      
C           102.45      -76.69      113.83      
C           101.45      -77.5       113.27      
N           103.72      -75.97      115.59      
C           104.17      -75.24      114.51      
C           103.44      -75.67      113.29      
O           105.12      -74.46      114.54      
C           104.3       -76.14      116.95      
C           103.74      -75.23      112.05      
C           104.42      -74.05      111.48      
C           104.58      -74.26      110.07      
N           103.93      -75.41      109.66      
C           103.35      -75.99      110.74      
C           105.0       -72.88      112.03      
O           102.7       -76.99      110.54      
C           104.16      -76.21      108.39      
H           101.2       -77.33      112.24      
H           101.93      -77.55      117.13      
H           99.68       -78.62      113.6       
H           105.38      -73.59      108.22      
H           104.72      -72.6       113.04      
H           106.06      -71.16      111.73      
H           103.6       -76.36      117.81      
H           104.86      -77.02      116.81      
H           104.96973   -75.34202   117.27062   
H           103.96      -77.24      108.43      
H           103.55738   -75.86665   107.54913   
H           105.22      -76.12      108.03      
C           105.72      -72.01      111.26      
C           105.3       -73.39      109.27      
C           105.98      -72.26      109.87      
C           95.09       -82.52      118.71      
S           95.65       -82.33      117.04      
C           95.69       -81.62      119.49      
C           96.8        -81.05      118.86      
C           96.87       -81.26      117.5       
N           97.89       -80.17      119.16      
C           98.51       -79.86      117.99      
C           97.94       -80.53      116.92      
C           98.44       -79.72      120.43      
H           98.9        -78.68      120.31      
H           99.26       -80.36      120.85      
H           97.71825    -79.74187   121.24652   
H           100.14      -78.33      118.33      
H           95.47       -81.58      120.53      
C           99.56       -78.95      117.68      
S           98.69       -80.02      115.41      
C           99.71       -78.95      116.32      
H           29.64       26.21       34.02       
H           94.16       -82.91      118.98      
