512

C           37.53       30.57       7.12        
C           38.07       31.3        6.13        
C           36.61       31.07       8.03        
C           36.27       32.46       7.89        
C           36.65       33.28       6.76        
C           37.62       32.64       5.9         
N           35.64       33.29       8.73        
C           35.38       34.6        8.2         
C           36.05       34.69       6.88        
O           34.76       35.4        8.86        
C           35.27       32.98       10.09       
C           36.03       35.88       6.15        
C           35.29       37.17       6.11        
C           35.8        37.92       5.06        
N           36.86       37.33       4.48        
C           37.03       36.05       5.02        
C           34.2        37.65       6.79        
O           37.96       35.3        4.54        
C           37.85       38.0        3.64        
H           38.1        33.15       5.06        
H           36.34       30.48       8.85        
H           38.82       30.91       5.58        
H           35.8        39.92       4.01        
H           33.72       37.09       7.59        
H           32.67       39.15       6.84        
H           35.95       32.2        10.41       
H           35.54       33.76       10.76       
H           34.24301    32.62829    10.18848    
H           37.79       39.07       3.74        
H           37.76561    37.71168    2.59222     
H           38.81       37.65       4.04        
C           33.55       38.83       6.32        
C           35.33       39.24       4.8         
C           34.11       39.68       5.37        
C           40.08       23.58       9.29        
S           39.28       24.84       10.18       
C           40.23       23.87       7.97        
C           39.66       25.12       7.67        
C           39.21       25.84       8.79        
N           39.51       25.94       6.5         
C           38.86       27.11       6.92        
C           38.73       27.1        8.35        
C           39.84       25.54       5.19        
H           39.5        26.34       4.56        
H           39.29       24.65       4.74        
H           40.89965    25.29439    5.11982     
H           38.41       28.59       5.28        
H           40.69       23.2        7.2         
C           38.38       28.32       6.34        
S           38.11       28.62       8.95        
C           38.02       29.19       7.3         
C           45.19       16.05       15.52       
C           44.65       17.21       16.06       
C           45.05       15.7        14.13       
C           44.43       16.57       13.3        
C           43.67       17.69       13.86       
C           43.78       17.97       15.27       
N           44.23       16.5        11.95       
C           43.71       17.66       11.45       
C           43.08       18.34       12.63       
O           43.52       17.86       10.25       
C           44.67       15.43       11.04       
C           42.18       19.37       12.5        
C           41.85       20.3        11.38       
C           40.84       21.15       11.91       
N           40.63       20.9        13.3        
C           41.36       19.87       13.69       
C           42.05       20.51       10.0        
O           41.16       19.32       14.76       
C           39.97       21.73       14.23       
H           43.25       18.78       15.73       
H           45.56       14.79       13.74       
H           44.78       17.51       17.12       
H           39.65       22.9        11.77       
H           42.77       19.9        9.51        
H           41.88       21.75       8.39        
H           44.39       14.56       11.5        
H           44.17       15.52       10.04       
H           45.7534     15.50739    10.94854    
H           40.1        22.81       14.01       
H           38.92242    21.47179    14.38492    
H           40.5        21.6        15.12       
C           41.56       21.6        9.37        
C           40.35       22.24       11.25       
C           40.6        22.38       9.91        
C           50.34       11.44       19.16       
S           49.85       11.61       17.49       
C           49.61       12.24       20.01       
C           48.64       12.93       19.34       
C           48.61       12.69       17.99       
N           47.62       13.86       19.56       
C           47.07       14.36       18.35       
C           47.59       13.48       17.4        
C           47.29       14.53       20.81       
H           46.38       15.03       20.68       
H           48.03       15.21       21.13       
H           47.06282    13.77963    21.56725    
H           45.69       16.02       18.56       
H           49.78       12.24       21.06       
C           46.12       15.31       17.83       
S           46.86       13.87       15.85       
C           45.93       15.19       16.47       
C           58.72       4.66        22.42       
C           57.41       4.48        22.87       
C           58.96       5.61        21.44       
C           57.94       6.53        21.05       
C           56.6        6.41        21.56       
C           56.39       5.33        22.41       
N           57.99       7.69        20.23       
C           56.74       8.2         20.09       
C           55.77       7.54        21.04       
O           56.59       9.12        19.29       
C           59.21       8.19        19.56       
C           54.47       7.94        21.22       
C           53.61       8.95        20.5        
C           52.42       9.13        21.24       
N           52.45       8.42        22.45       
C           53.7        7.72        22.54       
C           53.58       9.56        19.21       
O           54.13       7.1         23.54       
C           51.32       8.13        23.39       
H           55.4        5.12        22.82       
H           59.98       5.72        21.03       
H           57.24       3.84        23.7        
H           50.49       10.19       21.54       
H           54.46       9.64        18.59       
H           52.54       10.76       17.81       
H           60.14       7.46        19.69       
H           58.99       8.23        18.47       
H           59.45428    9.209       19.86012    
H           50.87       9.08        23.6        
H           50.60844    7.44748     22.9253     
H           51.77       7.73        24.32       
C           52.47       10.29       18.75       
C           51.37       9.99        20.88       
C           51.34       10.52       19.55       
C           65.44       2.81        26.06       
S           65.09       3.84        24.69       
C           64.27       2.16        26.56       
C           63.1        2.51        25.76       
C           63.44       3.35        24.68       
N           61.71       2.4         25.85       
C           61.15       2.94        24.68       
C           62.17       3.59        24.04       
C           61.02       1.48        26.73       
H           59.91       1.47        26.65       
H           61.24       1.65        27.76       
H           61.29316    0.45041     26.49887    
H           58.95       2.74        24.43       
H           64.24       1.72        27.55       
C           59.83       3.15        24.06       
S           61.53       4.41        22.65       
C           59.88       4.0         23.02       
C           75.84       1.68        29.95       
C           75.59       2.63        28.93       
C           74.82       0.92        30.45       
C           73.55       1.08        29.88       
C           73.27       2.08        28.97       
C           74.28       2.86        28.48       
N           72.4        0.31        30.27       
C           71.32       0.78        29.55       
C           71.83       1.93        28.64       
O           70.21       0.39        29.77       
C           72.53       -1.07       30.75       
C           70.91       2.64        27.85       
C           69.49       2.39        27.52       
C           69.05       3.57        26.81       
N           70.1        4.48        26.7        
C           71.21       4.02        27.33       
C           68.52       1.38        27.67       
O           72.13       4.82        27.56       
C           70.0        5.85        26.13       
H           74.21       3.52        27.54       
H           74.99       0.11        31.12       
H           76.46       3.13        28.5        
H           67.33       4.65        25.91       
H           68.78       0.36        27.92       
H           66.6        0.56        27.16       
H           73.31       -1.14       31.44       
H           71.65       -1.2        31.38       
H           72.67478    -1.81561    29.9682     
H           70.8        6.48        26.49       
H           70.05042    5.90042     25.04233    
H           69.13       6.38        26.53       
C           67.23       1.45        27.16       
C           67.71       3.75        26.38       
C           66.79       2.69        26.64       
C           82.78       -0.87       32.35       
S           81.12       -1.45       32.69       
C           82.78       0.35        31.8        
C           81.46       0.83        31.41       
C           80.49       -0.04       31.83       
N           80.91       1.91        30.77       
C           79.49       1.57        30.65       
C           79.29       0.44        31.37       
C           81.63       2.88        30.06       
H           80.99       3.65        29.7        
H           82.1        2.47        29.19       
H           82.30542    3.43196     30.71364    
H           78.37       3.08        29.53       
H           83.7        0.75        31.49       
C           78.36       2.12        30.07       
S           77.56       -0.01       31.28       
C           77.22       1.42        30.34       
C           91.08       -7.66       35.59       
C           91.28       -6.35       35.2        
C           89.71       -8.13       35.72       
C           88.68       -7.27       35.37       
C           88.9        -5.93       34.85       
C           90.21       -5.54       34.82       
N           87.29       -7.49       35.42       
C           86.62       -6.47       34.78       
C           87.6        -5.34       34.53       
O           85.42       -6.56       34.64       
C           86.66       -8.22       36.5        
C           87.25       -4.09       34.08       
C           85.93       -3.48       33.62       
C           86.12       -2.11       33.53       
N           87.45       -1.77       33.79       
C           88.15       -2.88       34.23       
C           84.67       -3.94       33.32       
O           89.24       -2.66       34.68       
C           87.98       -0.41       33.85       
H           90.51       -4.59       34.37       
H           89.53       -9.13       36.02       
H           92.23       -5.94       34.99       
H           85.43       -0.18       33.01       
H           84.48       -5.03       33.34       
H           82.67       -3.66       32.63       
H           87.26       -9.1        36.75       
H           85.72       -8.68       36.23       
H           86.44657    -7.55835    37.33951    
H           88.83       -0.36       34.5        
H           88.24846    -0.03271    32.86325    
H           87.23       0.25        34.19       
C           83.61       -3.12       32.91       
C           85.17       -1.24       33.06       
C           83.9        -1.72       32.77       
C           96.9        -12.93      36.99       
S           95.16       -12.9       37.51       
C           97.15       -11.78      36.3        
C           95.96       -10.93      36.13       
C           94.82       -11.39      36.78       
N           95.72       -9.66       35.57       
C           94.4        -9.4        35.69       
C           93.82       -10.41      36.5        
C           96.8        -8.68       35.53       
H           96.8        -8.18       36.49       
H           97.82       -9.17       35.47       
H           96.74991    -7.94294    34.72854    
H           93.65       -7.57       34.7        
H           98.13       -11.62      35.85       
C           93.43       -8.37       35.31       
S           92.12       -10.02      36.85       
C           92.18       -8.58       35.82       
C           104.02      -21.72      37.53       
C           104.46      -20.39      37.6        
C           102.67      -21.93      37.41       
C           101.78      -20.83      37.4        
C           102.21      -19.49      37.56       
C           103.58      -19.33      37.67       
N           100.39      -20.84      37.44       
C           99.86       -19.57      37.38       
C           101.01      -18.58      37.6        
O           98.67       -19.41      37.17       
C           99.53       -22.01      37.24       
C           100.83      -17.19      37.62       
C           99.6        -16.34      37.46       
C           100.05      -15.0       37.44       
N           101.43      -14.92      37.51       
C           102.0       -16.17      37.58       
C           98.24       -16.5       37.63       
O           103.2       -16.2       37.57       
C           102.14      -13.72      37.99       
H           104.0       -18.34      37.78       
H           102.37      -22.91      37.23       
H           105.52      -20.21      37.77       
H           99.58       -12.9       37.02       
H           97.82       -17.43      37.91       
H           96.36       -15.63      37.76       
H           100.04      -22.78      36.65       
H           98.65       -21.78      36.6        
H           99.17801    -22.41126   38.19036    
H           102.7       -14.01      38.84       
H           102.71992   -13.21982   37.21436    
H           101.42      -13.06      38.42       
C           97.37       -15.43      37.55       
C           99.19       -13.91      37.25       
C           97.77       -14.1       37.25       
C           108.29      -28.17      37.15       
S           106.65      -27.99      37.71       
C           108.9       -27.07      36.74       
C           108.1       -25.99      37.15       
C           106.75      -26.36      37.49       
N           108.18      -24.66      37.05       
C           106.97      -24.11      37.31       
C           105.99      -25.16      37.5        
C           109.31      -23.83      36.57       
H           109.9       -24.53      36.0        
H           109.16      -23.0       35.93       
H           109.97781   -23.59046   37.3975     
H           106.88      -21.9       37.46       
H           110.0       -27.05      36.52       
C           106.31      -22.83      37.46       
S           104.37      -24.53      37.47       
C           104.95      -22.84      37.53       
C           113.16      -38.18      38.63       
C           113.92      -37.17      37.91       
C           111.78      -38.06      38.86       
C           111.17      -36.92      38.44       
C           111.86      -35.77      37.89       
C           113.24      -35.99      37.63       
N           109.85      -36.55      38.61       
C           109.52      -35.32      38.04       
C           110.85      -34.64      37.62       
O           108.37      -34.96      37.74       
C           108.81      -37.29      39.32       
C           110.92      -33.34      37.21       
C           110.05      -32.16      37.34       
C           110.79      -31.11      36.8        
N           111.92      -31.55      36.22       
C           112.11      -32.9       36.46       
C           108.82      -31.88      37.97       
O           113.19      -33.44      36.16       
C           112.89      -30.79      35.58       
H           113.87      -35.33      37.04       
H           111.16      -38.77      39.36       
H           114.99      -37.2       37.76       
H           110.63      -29.04      36.22       
H           108.28      -32.74      38.41       
H           107.13      -30.56      38.15       
H           108.78      -38.37      39.06       
H           107.85      -36.91      38.96       
H           108.81709   -37.17663   40.40407    
H           112.48      -29.84      35.07       
H           113.62598   -30.50138   36.33042    
H           113.42      -31.41      34.83       
C           108.19      -30.66      37.87       
C           110.16      -29.83      36.8        
C           108.88      -29.55      37.28       
C           115.31      -45.16      41.15       
S           113.75      -44.38      41.04       
C           116.41      -44.35      40.78       
C           115.98      -43.06      40.44       
C           114.57      -42.92      40.54       
N           116.47      -41.82      39.95       
C           115.39      -40.99      39.79       
C           114.19      -41.62      40.16       
C           117.87      -41.5       39.87       
H           118.02      -40.42      39.66       
H           118.31      -42.18      39.14       
H           118.36375   -41.72571   40.81518    
H           115.87      -38.99      38.84       
H           117.45      -44.83      40.68       
C           115.16      -39.64      39.3        
S           112.85      -40.54      39.97       
C           113.81      -39.34      39.14       
C           115.99      -55.28      45.42       
C           114.99      -55.18      44.38       
C           117.03      -54.36      45.39       
C           116.93      -53.28      44.57       
C           115.87      -52.99      43.65       
C           114.91      -54.03      43.58       
N           117.88      -52.26      44.43       
C           117.49      -51.24      43.61       
C           116.16      -51.68      43.02       
O           118.38      -50.6       43.03       
C           119.1       -52.25      45.2        
C           115.48      -50.83      42.27       
C           115.71      -49.37      42.0        
C           114.62      -48.82      41.3        
N           113.84      -49.87      40.94       
C           114.18      -51.08      41.58       
C           116.59      -48.44      42.53       
O           113.54      -52.13      41.57       
C           112.66      -49.72      40.05       
H           114.02      -53.9       43.06       
H           117.83      -54.52      46.12       
H           114.31      -55.99      44.33       
H           113.67      -47.13      40.2        
H           117.24      -48.7       43.39       
H           117.02      -46.31      42.74       
H           119.79      -51.56      44.79       
H           119.59      -53.25      45.27       
H           118.82876   -51.82576   46.16672    
H           112.86      -49.25      39.1        
H           111.8956    -49.13962   40.56668    
H           112.31      -50.79      39.84       
C           116.43      -47.09      42.16       
C           114.51      -47.52      40.88       
C           115.47      -46.61      41.32       
C           114.4       -61.21      50.32       
S           113.43      -60.35      49.17       
C           115.71      -60.78      50.34       
C           115.94      -59.68      49.43       
C           114.78      -59.38      48.65       
N           116.96      -58.82      49.05       
C           116.44      -57.96      48.05       
C           115.13      -58.29      47.81       
C           118.35      -58.82      49.36       
H           118.78      -57.89      49.02       
H           118.9       -59.57      48.78       
H           118.57741   -58.81289   50.42599    
H           117.97      -56.53      47.0        
H           116.46      -61.23      50.89       
C           116.93      -56.92      47.16       
S           114.38      -57.22      46.69       
C           115.93      -56.4       46.4        
C           109.87      -69.23      56.54       
C           111.26      -69.03      56.24       
C           109.05      -68.23      56.0        
C           109.57      -67.21      55.23       
C           110.98      -66.99      55.17       
C           111.85      -67.89      55.81       
N           108.87      -66.22      54.5        
C           109.8       -65.31      54.0        
C           111.16      -65.73      54.4        
O           109.43      -64.28      53.35       
C           107.51      -66.29      53.9        
C           112.24      -64.94      54.04       
C           112.53      -64.07      52.86       
C           113.84      -63.51      53.1        
N           114.33      -64.06      54.32       
C           113.49      -64.97      54.92       
C           111.87      -63.55      51.73       
O           113.76      -65.64      55.92       
C           115.66      -63.85      54.81       
H           112.9       -67.8       55.86       
H           108.04      -68.29      56.18       
H           111.92      -69.88      56.48       
H           115.48      -62.23      52.4        
H           110.83      -63.81      51.47       
H           112.06      -62.42      49.94       
H           106.93      -66.95      54.48       
H           106.99      -65.32      53.96       
H           107.51694   -66.67196   52.87914    
H           116.39      -63.59      53.96       
H           115.73151   -63.05629   55.55365    
H           116.04      -64.81      55.23       
C           112.51      -62.63      50.92       
C           114.48      -62.6       52.25       
C           113.78      -62.19      51.13       
C           106.07      -75.03      59.93       
S           105.6       -73.6       59.03       
C           107.42      -75.05      60.0        
C           108.12      -73.93      59.45       
C           107.23      -73.12      58.8        
N           109.42      -73.41      59.28       
C           109.25      -72.33      58.49       
C           107.88      -72.03      58.23       
C           110.74      -74.03      59.49       
H           111.41      -73.15      59.67       
H           111.19      -74.47      58.62       
H           110.79021   -74.60386   60.41535    
H           111.25      -71.45      57.91       
H           107.93      -75.85      60.35       
C           110.13      -71.38      57.86       
S           107.57      -70.64      57.32       
C           109.36      -70.34      57.28       
C           100.08      -83.82      63.19       
C           100.5       -83.6       61.89       
C           100.42      -82.88      64.2        
C           101.05      -81.65      63.86       
C           101.48      -81.43      62.53       
C           101.15      -82.41      61.53       
N           101.48      -80.57      64.67       
C           102.07      -79.62      63.88       
C           102.15      -80.11      62.44       
O           102.31      -78.5       64.28       
C           101.38      -80.56      66.15       
C           102.55      -79.34      61.35       
C           103.36      -78.13      61.29       
C           103.39      -77.65      59.9        
N           102.73      -78.57      59.06       
C           102.17      -79.52      59.9        
C           104.18      -77.46      62.2        
O           101.48      -80.44      59.44       
C           102.85      -78.71      57.67       
H           101.4       -82.3       60.48       
H           100.24      -83.18      65.24       
H           100.3       -84.33      61.14       
H           104.12      -76.26      58.45       
H           104.11      -77.66      63.28       
H           105.74      -76.09      62.34       
H           100.6       -79.96      66.46       
H           101.19      -81.62      66.45       
H           102.3134    -80.30544   66.65206    
H           102.9       -79.74      57.35       
H           102.06428   -78.14774   57.16541    
H           103.78      -78.32      57.32       
C           105.09      -76.53      61.63       
C           104.15      -76.58      59.46       
C           105.1       -76.06      60.3        
C           95.79       -90.3       63.96       
S           97.02       -89.86      62.84       
C           95.76       -89.43      65.06       
C           96.73       -88.39      64.94       
C           97.5        -88.51      63.78       
N           97.07       -87.15      65.55       
C           97.9        -86.44      64.71       
C           98.2        -87.27      63.62       
C           96.46       -86.63      66.77       
H           96.61       -85.55      66.94       
H           96.86       -87.18      67.64       
H           95.37407    -86.72411   66.77       
H           98.65       -84.48      65.45       
H           94.91       -89.52      65.78       
C           98.65       -85.21      64.68       
S           99.28       -86.5       62.55       
C           99.41       -85.05      63.51       
H           33.63       40.62       5.11        
H           94.85       -90.83      63.65       
