512

C           39.3        30.91       12.23       
C           38.11       31.54       12.54       
C           40.13       31.46       11.21       
C           39.71       32.66       10.56       
C           38.45       33.27       10.84       
C           37.66       32.66       11.85       
N           40.46       33.5        9.74        
C           39.68       34.57       9.3         
C           38.37       34.57       10.05       
O           40.13       35.36       8.52        
C           41.69       33.09       9.1         
C           37.47       35.66       10.03       
C           37.62       37.11       9.82        
C           36.38       37.83       10.1        
N           35.46       36.82       10.65       
C           36.04       35.55       10.55       
C           38.7        38.01       9.5         
O           35.35       34.61       10.98       
C           34.19       37.17       11.17       
H           36.68       33.06       12.28       
H           41.05       30.92       11.01       
H           37.44       31.27       13.36       
H           35.21       39.55       10.19       
H           39.63       37.66       9.16        
H           39.11       40.06       8.97        
H           42.37       34.0        9.26        
H           42.15       32.25       9.62        
H           41.54162    32.84977    8.04721     
H           33.71       37.9        10.48       
H           34.19696    37.62941    12.15843    
H           33.54       36.32       11.22       
C           38.36       39.43       9.36        
C           36.14       39.2        9.94        
C           37.18       40.06       9.63        
C           41.48       24.85       16.44       
S           39.97       25.15       15.68       
C           42.34       25.89       16.4        
C           41.83       26.86       15.5        
C           40.53       26.7        15.11       
N           42.31       28.04       15.07       
C           41.27       28.59       14.35       
C           40.17       27.79       14.32       
C           43.38       28.92       15.61       
H           43.18       29.9        15.33       
H           44.34       28.77       15.13       
H           43.52872    28.83502    16.68646    
H           41.76       30.7        13.75       
H           43.28       25.86       16.89       
C           41.02       29.87       13.7        
S           38.84       28.53       13.44       
C           39.86       29.84       12.94       
C           43.11       15.9        23.12       
C           41.92       16.02       22.47       
C           44.0        16.98       22.98       
C           43.75       18.02       22.17       
C           42.52       18.17       21.47       
C           41.57       17.17       21.7        
N           44.66       19.06       21.9        
C           44.13       19.93       21.0        
C           42.67       19.48       20.64       
O           44.78       20.89       20.57       
C           45.82       19.32       22.81       
C           41.81       20.15       19.75       
C           41.98       21.29       18.86       
C           40.7        21.78       18.5        
N           39.76       20.88       18.98       
C           40.31       19.93       19.77       
C           43.0        21.9        18.25       
O           39.66       19.09       20.34       
C           38.32       21.02       18.89       
H           40.61       17.18       21.24       
H           44.91       16.9        23.64       
H           41.25       15.26       22.72       
H           39.49       23.21       17.53       
H           43.99       21.55       18.48       
H           43.77       23.38       16.87       
H           45.65       20.04       23.58       
H           46.21       18.43       23.32       
H           46.72536    19.55554    22.25059    
H           38.01       22.06       18.7        
H           37.89103    20.47814    18.04711    
H           37.82       20.65       19.78       
C           42.88       23.0        17.42       
C           40.49       22.88       17.75       
C           41.64       23.61       17.25       
C           46.4        10.28       27.48       
S           46.77       11.96       27.21       
C           45.32       9.94        26.76       
C           44.77       10.99       25.95       
C           45.46       12.15       26.12       
N           43.65       11.26       25.02       
C           43.74       12.56       24.64       
C           44.85       13.1        25.27       
C           42.83       10.27       24.42       
H           42.21       10.73       23.63       
H           42.12       9.97        25.12       
H           43.41362    9.49653     23.92076    
H           42.18       13.26       23.34       
H           44.96       8.95        26.74       
C           43.07       13.47       23.86       
S           45.01       14.75       24.83       
C           43.63       14.74       23.81       
C           53.97       3.1         31.62       
C           52.57       2.94        31.83       
C           54.31       4.3         31.01       
C           53.34       5.25        30.63       
C           51.95       5.01        30.89       
C           51.59       3.91        31.58       
N           53.56       6.49        30.05       
C           52.33       7.02        29.71       
C           51.2        6.09        30.19       
O           52.2        8.14        29.25       
C           54.83       7.16        30.06       
C           49.87       6.46        30.17       
C           49.16       7.52        29.37       
C           47.79       7.58        29.84       
N           47.65       6.7         31.0        
C           48.85       6.02        31.21       
C           49.44       8.43        28.33       
O           49.03       5.35        32.21       
C           46.41       6.3         31.59       
H           50.57       3.64        31.67       
H           55.36       4.42        30.81       
H           52.21       2.0         32.27       
H           45.87       8.55        29.49       
H           50.4        8.38        27.94       
H           48.93       9.99        27.01       
H           55.53       6.59        30.72       
H           55.37       7.27        29.11       
H           54.77194    8.15434     30.50274    
H           45.54       6.96        31.42       
H           46.05029    5.33599     31.23029    
H           46.75       6.08        32.67       
C           48.63       9.37        27.83       
C           46.85       8.43        29.15       
C           47.35       9.39        28.22       
C           60.31       -0.61       33.82       
S           60.05       0.66        32.62       
C           59.19       -1.11       34.41       
C           58.06       -0.43       33.94       
C           58.36       0.58        32.94       
N           56.74       -0.36       34.24       
C           56.18       0.63        33.35       
C           57.21       1.2         32.61       
C           56.1        -0.95       35.39       
H           55.03       -0.61       35.5        
H           56.66       -0.7        36.26       
H           55.98464    -2.03148    35.3179     
H           53.99       1.03        33.73       
H           59.19       -1.89       35.15       
C           54.9        1.23        33.13       
S           56.64       2.43        31.52       
C           54.98       2.18        32.15       
C           70.69       -4.82       33.7        
C           70.36       -3.55       33.22       
C           69.67       -5.69       34.25       
C           68.38       -5.12       34.38       
C           68.1        -3.78       34.01       
C           69.09       -3.05       33.42       
N           67.22       -5.79       34.75       
C           66.13       -4.96       34.65       
C           66.65       -3.51       34.24       
O           65.01       -5.32       35.04       
C           67.05       -7.24       34.76       
C           65.83       -2.42       34.26       
C           64.37       -2.15       34.27       
C           64.06       -0.8        34.13       
N           65.28       -0.18       33.95       
C           66.38       -1.01       34.05       
C           63.22       -2.97       34.38       
O           67.55       -0.62       33.87       
C           65.42       1.28        33.71       
H           68.86       -2.13       32.86       
H           69.94       -6.74       34.47       
H           71.03       -2.98       32.71       
H           62.61       0.85        33.9        
H           63.26       -3.98       34.46       
H           61.09       -3.04       34.4        
H           67.96       -7.76       34.67       
H           66.61       -7.57       35.72       
H           66.45482    -7.63448    33.93644    
H           66.49       1.51        33.92       
H           65.13584    1.54337     32.69118    
H           64.85       1.84        34.4        
C           61.95       -2.39       34.3        
C           62.78       -0.17       34.12       
C           61.71       -1.06       34.15       
C           77.83       -6.97       31.66       
S           77.2        -5.52       32.42       
C           76.84       -7.93       31.59       
C           75.58       -7.43       32.05       
C           75.64       -6.13       32.48       
N           74.23       -7.94       32.18       
C           73.55       -6.9        32.61       
C           74.33       -5.85       32.89       
C           73.72       -9.26       31.91       
H           72.64       -9.24       31.93       
H           73.98       -9.96       32.74       
H           74.11368    -9.67477    30.98205    
H           71.42       -7.4        32.65       
H           77.0        -8.91       31.3        
C           72.21       -6.68       32.93       
S           73.43       -4.43       33.49       
C           71.99       -5.37       33.41       
C           88.41       -10.46      32.91       
C           87.76       -10.55      31.77       
C           87.83       -9.65       33.89       
C           86.56       -9.09       33.62       
C           85.95       -9.21       32.37       
C           86.62       -9.93       31.39       
N           85.77       -8.34       34.51       
C           84.71       -7.79       33.82       
C           84.63       -8.52       32.45       
O           83.94       -7.02       34.44       
C           85.88       -8.39       35.96       
C           83.43       -8.51       31.68       
C           82.08       -7.81       31.76       
C           81.24       -8.4        30.81       
N           81.91       -9.42       30.11       
C           83.21       -9.4        30.5        
C           81.51       -6.84       32.58       
O           84.06       -10.06      29.88       
C           81.28       -10.73      29.85       
H           86.24       -10.13      30.43       
H           88.38       -9.56       34.75       
H           88.14       -11.15      30.93       
H           79.26       -8.77       29.92       
H           82.07       -6.4        33.39       
H           79.73       -5.94       33.15       
H           86.32       -9.33       36.29       
H           84.87       -8.36       36.42       
H           86.46825    -7.57065    36.37318    
H           80.38       -10.81      30.44       
H           81.07085    -10.8764    28.79032    
H           82.05       -11.45      30.18       
C           80.13       -6.59       32.4        
C           79.85       -8.15       30.65       
C           79.28       -7.22       31.52       
C           94.21       -15.59      34.48       
S           93.58       -15.1       32.93       
C           93.83       -14.76      35.47       
C           92.88       -13.8       35.03       
C           92.62       -13.89      33.66       
N           92.1        -12.86      35.65       
C           91.24       -12.38      34.65       
C           91.57       -12.93      33.4        
C           92.05       -12.68      37.04       
H           92.94       -13.08      37.57       
H           92.15       -11.58      37.29       
H           91.20665    -13.23503   37.45086    
H           89.8        -10.85      35.37       
H           94.18       -14.82      36.47       
C           90.1        -11.49      34.58       
S           90.5        -12.31      32.14       
C           89.54       -11.36      33.29       
C           100.96      -24.49      33.12       
C           101.34      -23.48      33.95       
C           99.82       -24.31      32.3        
C           99.03       -23.14      32.49       
C           99.34       -22.13      33.43       
C           100.48      -22.42      34.13       
N           97.85       -22.78      31.9        
C           97.38       -21.52      32.33       
C           98.3        -21.1       33.44       
O           96.36       -21.09      31.84       
C           97.45       -23.4       30.55       
C           98.08       -19.92      34.16       
C           96.87       -19.0       34.16       
C           97.25       -17.8       34.83       
N           98.53       -17.94      35.32       
C           99.09       -19.16      35.0        
C           95.52       -19.1       33.84       
O           100.23      -19.45      35.27       
C           99.28       -16.94      35.99       
H           100.72      -21.66      34.86       
H           99.59       -25.03      31.57       
H           102.26      -23.6       34.56       
H           96.87       -15.86      35.49       
H           95.15       -19.97      33.26       
H           93.65       -18.01      33.54       
H           98.29       -23.69      29.98       
H           96.97       -22.61      29.9        
H           96.71279    -24.17974   30.74139    
H           99.6        -17.3       37.02       
H           100.07003   -16.52344   35.36516    
H           98.57       -16.18      36.39       
C           94.63       -17.99      34.01       
C           96.41       -16.75      35.02       
C           95.04       -16.78      34.54       
C           104.63      -31.23      32.04       
S           103.04      -30.67      31.52       
C           105.36      -30.26      32.61       
C           104.66      -29.01      32.58       
C           103.39      -29.01      31.99       
N           104.89      -27.74      33.21       
C           103.75      -27.02      32.98       
C           102.85      -27.76      32.17       
C           105.97      -27.36      34.1        
H           105.5       -26.84      34.97       
H           106.54      -28.17      34.57       
H           106.71003   -26.81545   33.51356    
H           103.74      -25.11      34.06       
H           106.3       -30.48      33.05       
C           103.21      -25.73      33.34       
S           101.31      -26.95      32.03       
C           101.95      -25.56      32.8        
C           106.17      -41.52      35.84       
C           107.24      -40.57      35.83       
C           104.86      -41.17      35.51       
C           104.72      -39.93      34.89       
C           105.79      -38.97      34.73       
C           107.05      -39.26      35.24       
N           103.48      -39.43      34.44       
C           103.63      -38.19      33.85       
C           105.12      -37.85      34.02       
O           102.82      -37.55      33.23       
C           102.22      -39.91      34.84       
C           105.65      -36.69      33.51       
C           105.13      -35.35      33.15       
C           106.24      -34.56      32.7        
N           107.39      -35.38      32.64       
C           107.18      -36.56      33.22       
C           103.88      -34.75      33.13       
O           108.13      -37.35      33.29       
C           108.75      -34.95      32.36       
H           107.82      -38.58      35.17       
H           103.98      -41.87      35.56       
H           108.22      -40.86      36.01       
H           107.08      -32.79      31.96       
H           103.09      -35.18      33.6        
H           102.84      -32.9       32.8        
H           102.18      -40.94      34.72       
H           101.5       -39.66      34.09       
H           101.90032   -39.44113   35.77063    
H           108.69      -34.1       31.73       
H           109.27356   -34.59369   33.24714    
H           109.31      -35.75      31.9        
C           103.8       -33.38      32.71       
C           106.1       -33.24      32.3        
C           104.87      -32.63      32.28       
C           108.44      -48.22      39.12       
S           109.32      -46.65      38.89       
C           107.19      -48.12      38.67       
C           106.91      -46.98      38.02       
C           107.93      -46.04      38.06       
N           105.91      -46.47      37.22       
C           106.29      -45.18      36.9        
C           107.57      -44.84      37.4        
C           104.72      -47.17      36.63       
H           104.35      -46.48      35.89       
H           103.95      -47.25      37.47       
H           104.99624   -48.07664   36.09168    
H           104.65      -43.82      36.0        
H           106.59      -49.0       38.69       
C           105.7       -43.93      36.27       
S           108.1       -43.27      37.01       
C           106.51      -42.88      36.23       
C           113.25      -56.56      44.68       
C           111.99      -56.64      44.04       
C           113.83      -55.25      44.73       
C           113.1       -54.21      44.2        
C           111.86      -54.32      43.51       
C           111.35      -55.62      43.42       
N           113.44      -52.83      44.27       
C           112.49      -52.02      43.65       
C           111.45      -52.98      43.09       
O           112.51      -50.78      43.65       
C           114.68      -52.33      44.82       
C           110.4       -52.49      42.41       
C           110.13      -51.21      41.66       
C           108.86      -51.37      41.06       
N           108.26      -52.52      41.47       
C           109.14      -53.3       42.17       
C           110.84      -50.05      41.42       
O           108.77      -54.35      42.73       
C           106.88      -52.96      41.38       
H           110.49      -55.85      42.86       
H           114.7       -55.08      45.26       
H           111.45      -57.63      43.99       
H           107.35      -50.63      39.87       
H           111.77      -49.86      41.84       
H           110.72      -48.13      40.53       
H           114.8       -51.35      44.4        
H           115.54      -52.9       44.62       
H           114.60929   -52.21687   45.90181    
H           106.44      -52.85      40.38       
H           106.22781   -52.41188   42.05994    
H           106.89      -53.98      41.61       
C           110.2       -49.02      40.64       
C           108.32      -50.43      40.26       
C           109.04      -49.24      40.0        
C           115.43      -63.31      48.07       
S           114.2       -62.89      46.82       
C           116.2       -62.25      48.44       
C           115.71      -61.04      47.76       
C           114.73      -61.28      46.82       
N           115.94      -59.68      47.78       
C           115.13      -59.05      46.78       
C           114.32      -60.02      46.27       
C           117.09      -59.03      48.25       
H           116.88      -57.97      48.2        
H           117.96      -59.27      47.6        
H           117.46245   -59.29001   49.24085    
H           115.39      -56.91      46.66       
H           117.02      -62.32      49.13       
C           114.89      -57.77      46.25       
S           113.22      -59.35      45.14       
C           113.88      -57.75      45.3        
C           114.32      -73.05      53.43       
C           115.32      -72.11      53.76       
C           113.71      -72.97      52.15       
C           113.9       -71.78      51.48       
C           114.95      -70.87      51.71       
C           115.63      -71.04      52.88       
N           113.3       -71.5       50.27       
C           113.75      -70.23      49.77       
C           114.92      -69.85      50.58       
O           113.24      -69.71      48.75       
C           112.23      -72.37      49.8        
C           115.69      -68.7       50.29       
C           115.5       -67.46      49.41       
C           116.44      -66.42      49.92       
N           117.33      -67.0       50.76       
C           116.96      -68.34      51.05       
C           114.65      -67.03      48.38       
O           117.59      -69.01      51.82       
C           118.62      -66.54      51.25       
H           116.32      -70.32      53.2        
H           112.77      -73.58      51.99       
H           115.87      -72.13      54.69       
H           117.24      -64.38      49.84       
H           114.16      -67.74      47.78       
H           114.06      -65.43      47.17       
H           112.54      -73.38      49.82       
H           111.46      -72.34      50.63       
H           111.83761   -72.13021   48.81176    
H           118.94      -65.7       50.58       
H           118.55051   -66.20645   52.28538    
H           119.4       -67.35      51.27       
C           114.69      -65.71      47.98       
C           116.47      -65.09      49.42       
C           115.49      -64.7       48.53       
C           111.86      -79.25      57.44       
S           111.19      -78.38      56.11       
C           113.07      -78.73      57.8        
C           113.44      -77.63      56.96       
C           112.55      -77.32      55.97       
N           114.52      -76.71      56.9        
C           114.27      -75.86      55.86       
C           113.07      -76.25      55.26       
C           115.51      -76.5       57.97       
H           116.0       -75.48      57.92       
H           116.37      -77.14      57.66       
H           115.06887   -76.53558   58.96611    
H           115.84      -74.23      55.62       
H           113.65      -79.1       58.68       
C           114.91      -74.7       55.29       
S           112.59      -75.14      53.97       
C           114.03      -74.14      54.34       
C           104.41      -86.75      60.45       
C           105.74      -87.14      60.13       
C           104.14      -85.39      60.63       
C           105.18      -84.51      60.68       
C           106.54      -84.86      60.26       
C           106.77      -86.23      60.0        
N           105.18      -83.13      60.83       
C           106.35      -82.53      60.64       
C           107.33      -83.61      60.32       
O           106.52      -81.34      60.78       
C           103.99      -82.36      61.27       
C           108.65      -83.36      59.87       
C           109.33      -82.1       59.48       
C           110.69      -82.43      59.21       
N           110.97      -83.76      59.67       
C           109.77      -84.37      60.0        
C           108.87      -80.83      59.06       
O           109.77      -85.49      60.42       
C           112.36      -84.31      59.9        
H           107.78      -86.6       59.72       
H           103.1       -85.08      60.83       
H           105.9       -88.15      59.86       
H           112.51      -81.78      58.42       
H           107.83      -80.57      59.06       
H           109.48      -78.99      58.0        
H           103.7       -81.56      60.59       
H           103.15      -83.06      61.28       
H           104.21628   -81.964     62.25999    
H           113.07      -84.01      59.14       
H           112.79228   -84.02181   60.85822    
H           112.32      -85.4       59.86       
C           109.75      -79.94      58.42       
C           111.51      -81.5       58.64       
C           111.01      -80.27      58.09       
C           99.09       -92.55      61.25       
S           100.83      -92.57      60.88       
C           98.76       -91.27      61.56       
C           99.79       -90.24      61.36       
C           101.01      -90.82      60.99       
N           99.88       -88.82      61.36       
C           101.22      -88.59      61.1        
C           101.92      -89.75      60.83       
C           98.86       -87.83      61.54       
H           99.31       -86.88      61.36       
H           98.69       -87.81      62.6        
H           97.97214    -88.03211   60.94087    
H           101.51      -86.36      60.89       
H           97.79       -90.99      62.0        
C           101.97      -87.41      60.84       
S           103.6       -89.37      60.49       
C           103.27      -87.64      60.61       
H           37.18       41.08       9.92        
H           98.38       -93.4       61.32       
