512

C           34.47       33.67       6.51        
C           33.08       33.47       6.48        
C           35.02       34.53       5.61        
C           34.17       35.18       4.72        
C           32.77       35.15       4.78        
C           32.27       34.38       5.82        
N           34.53       36.03       3.66        
C           33.44       36.42       2.91        
C           32.19       36.12       3.8         
O           33.6        37.13       2.0         
C           35.91       36.43       3.28        
C           30.92       36.64       3.69        
C           30.25       37.37       2.57        
C           28.94       37.78       3.03        
N           28.77       37.3        4.33        
C           29.77       36.51       4.76        
C           30.61       37.68       1.25        
O           29.76       36.15       5.92        
C           27.59       37.54       5.16        
H           31.23       34.23       5.99        
H           36.12       34.58       5.53        
H           32.61       32.83       7.23        
H           27.12       38.86       2.55        
H           31.51       37.34       0.82        
H           30.16       38.85       -0.48       
H           36.02       37.54       3.11        
H           36.67       36.15       4.04        
H           36.30098    36.01006    2.35324     
H           26.66       37.39       4.6         
H           27.50832    38.52022    5.62969     
H           27.5        36.75       5.94        
C           29.74       38.47       0.46        
C           28.11       38.55       2.23        
C           28.55       39.05       0.94        
C           38.91       28.82       10.81       
S           37.56       28.49       9.65        
C           39.08       30.16       11.02       
C           38.2        30.93       10.2        
C           37.29       30.22       9.41        
N           37.98       32.25       9.86        
C           36.92       32.3        8.99        
C           36.48       31.06       8.66        
C           38.53       33.46       10.53       
H           38.06       34.42       10.11       
H           39.57       33.43       10.77       
H           38.11784    33.46       11.53907    
H           36.29       34.3        8.49        
H           39.84       30.6        11.65       
C           36.2        33.31       8.32        
S           35.22       31.11       7.45        
C           35.34       32.86       7.35        
C           41.84       20.28       17.21       
C           41.26       20.05       15.98       
C           41.67       21.56       17.74       
C           41.24       22.58       16.92       
C           40.81       22.42       15.54       
C           40.82       21.06       15.11       
N           41.11       23.92       17.26       
C           40.87       24.68       16.17       
C           40.63       23.78       15.01       
O           40.63       25.89       16.35       
C           41.35       24.47       18.58       
C           40.27       24.18       13.71       
C           40.22       25.49       13.06       
C           39.58       25.35       11.82       
N           39.33       24.01       11.57       
C           39.7        23.19       12.63       
C           40.67       26.79       13.43       
O           39.6        22.0        12.59       
C           39.14       23.41       10.26       
H           40.51       20.82       14.12       
H           42.01       21.81       18.69       
H           41.21       19.02       15.5        
H           38.54       26.28       10.25       
H           41.12       27.04       14.39       
H           40.43       28.85       12.91       
H           40.53       25.08       18.93       
H           41.33       23.71       19.36       
H           42.27695    25.02193    18.73567    
H           38.38       23.92       9.59        
H           40.06808    23.36078    9.69049     
H           38.79       22.41       10.47       
C           40.31       27.87       12.6        
C           39.22       26.42       11.09       
C           39.54       27.66       11.49       
C           46.68       15.9        21.34       
S           46.71       17.63       20.97       
C           45.67       15.3        20.65       
C           44.9        16.18       19.94       
C           45.28       17.55       20.07       
N           43.74       16.07       19.18       
C           43.4        17.32       18.8        
C           44.33       18.22       19.32       
C           42.89       14.88       19.06       
H           42.03       15.19       18.5        
H           42.39       14.67       19.99       
H           43.42464    13.99856    18.70598    
H           41.56       17.43       17.64       
H           45.53       14.24       20.66       
C           42.35       17.95       18.1        
S           44.01       19.84       18.86       
C           42.57       19.29       17.99       
C           55.0        9.51        25.73       
C           53.67       9.36        26.14       
C           55.22       10.63       24.93       
C           54.14       11.44       24.51       
C           52.76       11.24       24.85       
C           52.61       10.15       25.66       
N           54.24       12.53       23.6        
C           53.0        13.12       23.38       
C           51.93       12.3        24.11       
O           52.81       13.95       22.58       
C           55.36       12.78       22.74       
C           50.6        12.6        24.09       
C           49.75       13.65       23.44       
C           48.39       13.32       23.51       
N           48.26       12.06       24.13       
C           49.51       11.62       24.54       
C           49.99       14.85       22.69       
O           49.65       10.62       25.27       
C           47.12       11.36       24.65       
H           51.66       9.9         25.96       
H           56.23       10.96       24.67       
H           53.4        8.4         26.69       
H           46.26       13.62       22.99       
H           50.96       15.27       22.57       
H           49.23       16.44       21.58       
H           56.08       11.96       22.93       
H           55.09       12.68       21.69       
H           55.72949    13.78391    22.94915    
H           46.36       12.0        25.03       
H           46.72888    10.63363    23.9376     
H           47.34       10.88       25.55       
C           48.96       15.56       22.17       
C           47.27       14.09       22.97       
C           47.6        15.24       22.19       
C           61.14       4.96        26.82       
S           61.03       6.7         26.63       
C           59.91       4.32        26.9        
C           58.88       5.26        26.78       
C           59.33       6.52        26.63       
N           57.49       5.19        26.87       
C           57.09       6.49        26.58       
C           58.19       7.34        26.48       
C           56.56       4.12        27.17       
H           55.71       4.06        26.48       
H           56.12       4.17        28.19       
H           57.00171    3.1244      27.12793    
H           54.86       6.7         26.41       
H           59.83       3.3         27.14       
C           55.85       7.16        26.42       
S           57.71       9.0         26.09       
C           56.07       8.49        26.05       
C           71.53       1.75        29.25       
C           71.32       2.88        28.41       
C           70.43       1.1         29.92       
C           69.15       1.48        29.44       
C           68.92       2.5         28.43       
C           70.04       3.21        28.06       
N           67.96       0.86        29.8        
C           66.9        1.34        29.07       
C           67.41       2.53        28.21       
O           65.77       0.92        29.28       
C           67.77       -0.3        30.69       
C           66.53       3.44        27.51       
C           65.05       3.56        27.3        
C           64.73       4.65        26.43       
N           65.86       5.23        25.98       
C           66.96       4.61        26.53       
C           63.97       2.9         27.93       
O           68.09       4.92        26.25       
C           65.98       6.19        24.88       
H           69.9        3.96        27.3        
H           70.57       0.21        30.61       
H           72.14       3.55        28.05       
H           63.15       5.82        25.51       
H           64.1        2.21        28.69       
H           61.78       2.74        28.12       
H           68.66       -0.36       31.29       
H           66.91       -0.19       31.42       
H           67.76293    -1.24021    30.1386     
H           65.16       6.1         24.15       
H           66.10343    7.18467     25.30836    
H           66.89       5.92        24.38       
C           62.68       3.27        27.68       
C           63.45       4.93        26.07       
C           62.43       4.32        26.79       
C           78.05       -2.35       30.44       
S           76.37       -2.65       30.79       
C           78.24       -1.11       29.81       
C           77.02       -0.4        29.67       
C           75.93       -1.11       30.19       
N           76.56       0.85        29.21       
C           75.19       0.87        29.27       
C           74.79       -0.33       29.91       
C           77.39       1.97        29.03       
H           76.7        2.72        28.69       
H           78.22       1.78        28.26       
H           77.77388    2.29482     29.99707    
H           74.21       2.6         28.41       
H           79.21       -0.81       29.44       
C           74.07       1.67        28.9        
S           73.11       -0.38       30.15       
C           72.85       1.22        29.42       
C           85.59       -9.85       33.94       
C           84.43       -10.2       33.22       
C           85.94       -8.48       34.02       
C           84.98       -7.53       33.58       
C           83.68       -7.89       33.02       
C           83.5        -9.27       32.75       
N           85.01       -6.18       33.63       
C           83.89       -5.57       33.16       
C           82.9        -6.63       32.77       
O           83.85       -4.35       33.13       
C           86.15       -5.54       34.34       
C           81.69       -6.38       32.18       
C           80.98       -5.22       31.68       
C           79.61       -5.58       31.43       
N           79.43       -6.92       31.61       
C           80.62       -7.47       32.1        
C           81.26       -3.87       31.5        
O           80.62       -8.57       32.51       
C           78.44       -7.69       30.84       
H           82.66       -9.69       32.22       
H           86.91       -8.1        34.5        
H           84.17       -11.23      33.12       
H           77.74       -4.92       30.95       
H           82.24       -3.49       31.75       
H           80.68       -1.87       30.79       
H           86.38       -6.17       35.27       
H           85.96       -4.48       34.65       
H           87.0615     -5.46934    33.74647    
H           77.48       -7.33       30.92       
H           78.74325    -7.69722    29.79306    
H           78.41       -8.74       31.15       
C           80.37       -2.96       31.04       
C           78.72       -4.59       31.16       
C           79.08       -3.26       30.84       
C           91.04       -15.37      34.99       
S           89.56       -15.46      34.04       
C           91.02       -14.27      35.74       
C           89.89       -13.44      35.64       
C           89.04       -13.93      34.65       
N           89.49       -12.27      36.19       
C           88.38       -11.94      35.5        
C           88.0        -12.94      34.61       
C           90.29       -11.45      37.11       
H           91.0        -12.08      37.54       
H           90.8        -10.64      36.66       
H           89.69405    -11.11347   37.95835    
H           87.8        -9.88       35.86       
H           91.74       -14.12      36.52       
C           87.64       -10.77      35.3        
S           86.63       -12.44      33.62       
C           86.56       -10.85      34.39       
C           97.65       -24.5       35.39       
C           98.17       -23.27      35.18       
C           96.23       -24.57      35.41       
C           95.5        -23.37      35.5        
C           96.07       -22.06      35.35       
C           97.48       -22.09      35.05       
N           94.14       -23.27      35.8        
C           93.79       -21.96      35.83       
C           94.95       -21.11      35.51       
O           92.76       -21.66      36.24       
C           93.41       -24.35      36.41       
C           94.89       -19.74      35.34       
C           93.76       -18.79      35.3        
C           94.24       -17.44      35.27       
N           95.61       -17.46      35.47       
C           96.08       -18.77      35.46       
C           92.38       -18.91      35.16       
O           97.26       -18.99      35.61       
C           96.48       -16.3       35.55       
H           97.97       -21.19      34.69       
H           95.71       -25.57      35.46       
H           99.22       -23.24      34.9        
H           93.82       -15.31      35.03       
H           91.97       -19.92      35.03       
H           90.47       -18.04      34.76       
H           92.65       -23.99      37.11       
H           94.06       -24.85      37.12       
H           93.07284    -25.08295   35.67705    
H           97.24       -16.37      36.34       
H           97.01152    -16.1471    34.61074    
H           95.93       -15.4       35.66       
C           91.57       -17.79      35.05       
C           93.41       -16.32      35.11       
C           92.04       -16.5       35.06       
C           101.9       -31.13      36.46       
S           100.14      -30.88      36.23       
C           102.63      -29.99      36.21       
C           101.76      -28.91      35.87       
C           100.36      -29.18      36.05       
N           101.85      -27.63      35.52       
C           100.59      -27.1       35.6        
C           99.62       -28.07      35.76       
C           103.09      -26.82      35.44       
H           103.78      -27.34      34.81       
H           102.86      -25.9       34.91       
H           103.62046   -26.66229   36.37906    
H           100.65      -24.96      35.22       
H           103.7       -29.92      36.25       
C           100.0       -25.82      35.48       
S           97.98       -27.29      35.81       
C           98.57       -25.67      35.54       
C           105.11      -41.62      38.91       
C           106.05      -40.63      38.53       
C           103.76      -41.22      38.97       
C           103.49      -39.83      38.73       
C           104.44      -38.79      38.45       
C           105.76      -39.29      38.23       
N           102.22      -39.27      39.04       
C           102.24      -37.93      38.61       
C           103.69      -37.51      38.35       
O           101.21      -37.32      38.42       
C           101.09      -39.87      39.75       
C           104.02      -36.21      38.01       
C           103.21      -35.04      37.52       
C           104.05      -33.92      37.58       
N           105.3       -34.28      37.98       
C           105.43      -35.69      38.09       
C           101.86      -34.77      37.17       
O           106.36      -36.32      38.63       
C           106.23      -33.43      38.66       
H           106.44      -38.58      37.81       
H           102.94      -41.89      39.17       
H           107.08      -40.99      38.35       
H           104.23      -31.84      37.45       
H           101.2       -35.6       37.1        
H           100.3       -33.4       36.56       
H           101.18      -40.94      39.66       
H           100.12      -39.55      39.39       
H           101.18197   -39.60824   40.8041     
H           106.8       -33.96      39.44       
H           106.95059   -32.8735    38.0607     
H           105.69      -32.6       39.2        
C           101.36      -33.51      36.85       
C           103.6       -32.68      37.28       
C           102.27      -32.47      36.81       
C           107.87      -48.7       40.48       
S           108.63      -47.47      39.51       
C           106.66      -48.28      40.96       
C           106.25      -47.02      40.43       
C           107.23      -46.39      39.68       
N           105.12      -46.25      40.59       
C           105.48      -45.0       40.08       
C           106.73      -45.11      39.33       
C           103.82      -46.74      40.87       
H           103.16      -45.96      40.86       
H           103.73      -47.18      41.84       
H           103.51002   -47.48252   40.13469    
H           103.88      -43.56      40.49       
H           106.06      -48.92      41.6        
C           104.83      -43.77      40.02       
S           107.02      -43.54      38.58       
C           105.45      -42.97      39.11       
C           112.76      -57.0       46.25       
C           111.39      -56.76      46.13       
C           113.61      -56.11      45.6        
C           113.02      -55.1       44.76       
C           111.64      -54.99      44.48       
C           110.84      -55.76      45.32       
N           113.71      -54.14      44.1        
C           112.83      -53.34      43.4        
C           111.39      -53.8       43.64       
O           113.3       -52.4       42.78       
C           115.19      -54.02      43.95       
C           110.26      -53.29      43.1        
C           109.97      -52.04      42.35       
C           108.65      -52.16      41.82       
N           108.13      -53.41      42.23       
C           109.03      -54.14      43.0        
C           110.58      -50.83      42.02       
O           108.76      -55.28      43.38       
C           106.78      -53.95      42.07       
H           109.79      -55.62      45.22       
H           114.69      -56.18      45.59       
H           110.68      -57.34      46.72       
H           106.97      -51.32      40.87       
H           111.64      -50.7       42.31       
H           110.42      -48.83      41.35       
H           115.44      -53.59      42.97       
H           115.66      -55.04      43.98       
H           115.61267   -53.41717   44.75377    
H           106.24      -53.39      41.3        
H           106.13247   -53.75076   42.92388    
H           106.9       -55.05      41.75       
C           109.87      -49.76      41.44       
C           107.95      -51.11      41.19       
C           108.56      -49.82      40.97       
C           114.35      -62.82      51.25       
S           113.04      -62.62      50.14       
C           115.16      -61.72      51.22       
C           114.79      -60.79      50.21       
C           113.65      -61.13      49.51       
N           115.4       -59.63      49.73       
C           114.44      -59.16      48.77       
C           113.37      -60.07      48.59       
C           116.53      -58.87      50.26       
H           116.68      -57.92      49.75       
H           117.4       -59.47      50.11       
H           116.48599   -58.71598   51.33817    
H           115.09      -57.18      47.82       
H           115.99      -61.63      51.94       
C           114.36      -58.01      47.95       
S           112.29      -59.49      47.35       
C           113.32      -58.05      47.12       
C           113.33      -71.74      57.86       
C           114.04      -70.63      58.31       
C           112.88      -71.77      56.53       
C           113.3       -70.73      55.65       
C           114.07      -69.57      56.1        
C           114.4       -69.56      57.46       
N           113.15      -70.73      54.3        
C           113.38      -69.42      53.76       
C           114.19      -68.68      54.87       
O           113.03      -69.21      52.57       
C           112.92      -71.96      53.54       
C           114.63      -67.42      54.72       
C           114.55      -66.37      53.65       
C           115.1       -65.15      54.1        
N           115.66      -65.44      55.36       
C           115.52      -66.75      55.74       
C           114.1       -66.36      52.29       
O           116.15      -67.22      56.72       
C           116.56      -64.5       55.98       
H           114.74      -68.64      57.79       
H           112.34      -72.63      56.18       
H           114.21      -70.43      59.37       
H           115.46      -63.0       53.77       
H           113.76      -67.31      51.81       
H           113.84      -65.23      50.45       
H           113.14      -72.81      54.21       
H           111.88      -72.08      53.26       
H           113.51837   -72.02649   52.63136    
H           116.89      -63.8       55.25       
H           116.18707   -64.05994   56.90486    
H           117.49      -65.03      56.28       
C           114.17      -65.22      51.51       
C           115.11      -63.96      53.39       
C           114.53      -64.0       52.09       
C           109.12      -77.26      61.56       
S           109.82      -77.17      59.94       
C           109.38      -76.05      62.19       
C           110.2       -75.13      61.5        
C           110.5       -75.56      60.22       
N           110.74      -73.83      61.66       
C           111.41      -73.51      60.48       
C           111.26      -74.56      59.64       
C           110.4       -72.88      62.74       
H           110.94      -71.91      62.5        
H           110.98      -73.16      63.67       
H           109.31879   -72.80175   62.85381    
H           112.33      -71.52      60.52       
H           109.05      -75.85      63.2        
C           112.17      -72.43      59.96       
S           112.16      -74.24      58.14       
C           112.7       -72.68      58.77       
C           102.22      -85.9       63.97       
C           103.54      -86.07      63.53       
C           101.82      -84.57      64.31       
C           102.73      -83.5       64.05       
C           103.99      -83.67      63.44       
C           104.42      -85.0       63.3        
N           102.41      -82.17      64.26       
C           103.48      -81.43      63.77       
C           104.59      -82.34      63.23       
O           103.38      -80.24      63.68       
C           101.32      -81.81      65.15       
C           105.75      -81.88      62.72       
C           106.47      -80.5       62.6        
C           107.68      -80.64      61.89       
N           107.8       -82.0       61.51       
C           106.72      -82.76      61.9        
C           106.25      -79.2       63.03       
O           106.6       -83.93      61.6        
C           109.09      -82.64      61.16       
H           105.42      -85.19      63.0        
H           100.91      -84.38      64.88       
H           103.78      -87.02      63.24       
H           109.5       -79.81      61.06       
H           105.22      -78.96      63.31       
H           106.91      -77.09      62.9        
H           100.39      -82.09      64.72       
H           101.41      -82.38      66.03       
H           101.26873   -80.74069   65.35507    
H           109.66      -82.12      60.44       
H           109.71865   -82.66825   62.05       
H           108.92      -83.68      60.87       
C           107.15      -78.18      62.64       
C           108.56      -79.65      61.57       
C           108.35      -78.38      61.95       
C           98.04       -92.55      63.61       
S           99.78       -92.31      63.83       
C           97.36       -91.34      63.65       
C           98.24       -90.19      63.77       
C           99.58       -90.54      63.89       
N           98.2        -88.79      63.73       
C           99.49       -88.34      63.94       
C           100.37      -89.36      64.0        
C           96.97       -88.05      64.0        
H           97.21       -86.95      63.91       
H           96.7        -88.17      65.04       
H           96.1516     -88.25819   63.31082    
H           99.56       -86.09      64.02       
H           96.32       -91.38      63.66       
C           100.04      -87.06      64.02       
S           101.98      -88.72      64.07       
C           101.39      -87.09      64.17       
H           28.28       40.01       0.62        
H           97.61       -93.4       63.12       
