512

C           36.26       38.79       11.76       
C           34.98       39.37       11.39       
C           37.14       39.7        12.25       
C           36.81       41.05       12.44       
C           35.57       41.65       12.1        
C           34.7        40.7        11.55       
N           37.64       42.06       12.98       
C           37.1        43.35       12.88       
C           35.64       43.12       12.27       
O           37.72       44.33       13.22       
C           38.78       41.82       13.89       
C           34.8        44.28       12.06       
C           35.07       45.77       11.92       
C           33.77       46.33       11.61       
N           32.75       45.4        11.66       
C           33.32       44.15       11.8        
C           36.19       46.6        11.87       
O           32.63       43.15       11.58       
C           31.37       45.63       11.35       
H           33.75       41.0        11.21       
H           38.07       39.3        12.65       
H           34.3        38.74       10.9        
H           32.64       48.17       11.23       
H           37.12       46.26       12.16       
H           36.89       48.64       11.42       
H           38.65       42.3        14.78       
H           38.82       40.78       14.16       
H           39.75483    42.15423    13.53488    
H           31.33       46.19       10.41       
H           30.7854     46.02443    12.18112    
H           30.93       44.69       10.92       
C           36.04       47.99       11.65       
C           33.6        47.71       11.35       
C           34.78       48.49       11.41       
C           38.88       31.5        11.57       
S           39.63       33.1        11.33       
C           37.49       31.65       11.62       
C           37.06       33.05       11.64       
C           38.17       33.91       11.48       
N           35.85       33.73       11.67       
C           36.17       35.12       11.53       
C           37.59       35.18       11.42       
C           34.54       33.14       11.53       
H           33.74       33.93       11.56       
H           34.37       32.65       12.39       
H           34.45259    32.44803    10.69236    
H           34.51       36.62       11.76       
H           36.83       30.82       11.8        
C           35.58       36.44       11.55       
S           38.22       36.8        11.44       
C           36.54       37.38       11.54       
C           45.23       22.37       13.77       
C           43.89       22.21       13.24       
C           45.75       23.71       13.81       
C           44.93       24.82       13.42       
C           43.6        24.63       12.99       
C           43.14       23.33       12.93       
N           45.32       26.21       13.47       
C           44.22       26.99       13.11       
C           43.06       26.07       12.9        
O           44.21       28.17       13.27       
C           46.62       26.8        13.85       
C           41.76       26.57       12.79       
C           41.22       27.94       12.46       
C           39.84       27.95       12.49       
N           39.37       26.7        12.91       
C           40.44       25.81       13.02       
C           41.78       29.18       12.1        
O           40.31       24.66       13.31       
C           38.0        26.27       13.04       
H           42.14       23.11       12.61       
H           46.75       23.9        14.19       
H           43.39       21.22       13.2        
H           37.93       29.08       12.32       
H           42.79       29.21       12.02       
H           41.59       31.21       11.51       
H           46.45       27.53       14.64       
H           47.36       26.02       14.15       
H           47.01209    27.24912    12.9375     
H           37.41       27.04       13.42       
H           37.57443    25.94149    12.0918     
H           38.05       25.52       13.79       
C           41.05       30.29       11.72       
C           39.02       29.09       12.17       
C           39.64       30.26       11.77       
C           49.75       16.5        16.32       
S           50.14       18.22       16.29       
C           48.44       16.17       15.95       
C           47.72       17.43       15.62       
C           48.5        18.6        15.7        
N           46.5        17.68       15.15       
C           46.44       18.98       14.88       
C           47.66       19.63       15.25       
C           45.59       16.71       14.5        
H           44.73       17.26       14.15       
H           45.29       15.92       15.18       
H           46.14688    16.1674     13.73608    
H           44.52       19.54       14.0        
H           48.09       15.18       15.88       
C           45.49       19.87       14.23       
S           47.66       21.35       14.76       
C           45.98       21.21       14.19       
C           56.5        8.08        19.93       
C           55.42       7.88        19.01       
C           56.84       9.39        20.22       
C           56.05       10.48       19.76       
C           55.01       10.29       18.78       
C           54.68       8.91        18.47       
N           56.04       11.82       20.17       
C           55.2        12.58       19.46       
C           54.38       11.66       18.54       
O           55.01       13.73       19.66       
C           57.05       12.37       21.08       
C           53.42       12.27       17.65       
C           52.63       13.54       17.6        
C           51.72       13.38       16.5        
N           51.88       12.07       15.9        
C           52.96       11.47       16.48       
C           52.47       14.75       18.33       
O           53.21       10.37       16.11       
C           50.85       11.34       15.13       
H           53.86       8.69        17.73       
H           57.74       9.56        20.84       
H           55.29       6.82        18.67       
H           49.94       13.96       15.43       
H           53.18       15.06       19.11       
H           51.68       16.71       18.39       
H           56.57       12.93       21.85       
H           57.61       11.58       21.6        
H           57.84392    12.93296    20.58921    
H           49.84       11.78       15.34       
H           50.97977    11.29674    14.04862    
H           50.82       10.32       15.4        
C           51.52       15.73       17.91       
C           50.71       14.25       16.2        
C           50.68       15.56       16.8        
C           61.7        2.59        22.0        
S           61.9        4.18        21.37       
C           60.42       2.17        22.11       
C           59.52       3.22        21.67       
C           60.18       4.48        21.32       
N           58.12       3.42        21.51       
C           57.92       4.72        21.1        
C           59.2        5.46        21.05       
C           57.11       2.61        22.19       
H           56.15       3.15        22.12       
H           57.18       2.7         23.29       
H           56.95091    1.60486     21.79951    
H           55.88       5.58        20.96       
H           60.09       1.2         22.41       
C           56.87       5.65        20.8        
S           59.04       7.17        20.65       
C           57.32       6.94        20.35       
C           71.13       -2.38       25.31       
C           71.11       -1.45       24.25       
C           69.91       -2.9        25.68       
C           68.75       -2.4        25.07       
C           68.7        -1.52       24.0        
C           69.94       -0.93       23.69       
N           67.41       -2.89       25.34       
C           66.49       -2.23       24.61       
C           67.26       -1.3        23.71       
O           65.28       -2.37       24.69       
C           67.04       -4.08       26.16       
C           66.63       -0.39       22.93       
C           65.24       0.25        22.99       
C           65.21       1.2         21.96       
N           66.43       1.24        21.31       
C           67.26       0.29        21.72       
C           64.09       0.2         23.78       
O           68.39       0.04        21.35       
C           66.8        2.34        20.4        
H           70.04       -0.11       23.0        
H           69.73       -3.51       26.56       
H           72.1        -1.04       23.88       
H           64.11       2.67        20.83       
H           63.97       -0.45       24.63       
H           62.08       0.75        23.92       
H           67.88       -4.5        26.72       
H           66.49       -3.75       26.99       
H           66.47774    -4.86572    25.65541    
H           65.98       2.62        19.92       
H           67.24335    3.20624     20.8911     
H           67.44       1.89        19.59       
C           62.94       0.87        23.28       
C           64.04       1.91        21.61       
C           62.84       1.72        22.26       
C           77.04       -5.81       29.14       
S           75.32       -6.13       29.29       
C           77.34       -4.85       28.19       
C           76.15       -4.24       27.69       
C           75.02       -4.86       28.16       
N           75.88       -3.2        26.81       
C           74.53       -3.31       26.5        
C           73.99       -4.27       27.37       
C           76.8        -2.2        26.32       
H           76.24       -1.59       25.69       
H           77.6        -2.67       25.66       
H           77.25239    -1.66005    27.15181    
H           73.91       -1.84       24.96       
H           78.38       -4.5        28.04       
C           73.59       -2.57       25.75       
S           72.3        -4.21       27.04       
C           72.33       -2.93       25.92       
C           83.88       -12.71      34.44       
C           82.53       -12.94      34.32       
C           84.43       -11.38      34.14       
C           83.61       -10.48      33.57       
C           82.19       -10.67      33.54       
C           81.65       -11.92      33.95       
N           83.99       -9.3        32.89       
C           82.87       -8.57       32.46       
C           81.69       -9.44       32.85       
O           82.91       -7.46       32.02       
C           85.29       -8.75       32.76       
C           80.43       -9.0        32.55       
C           79.8        -8.09       31.58       
C           78.4        -8.12       31.76       
N           78.0        -9.0        32.74       
C           79.14       -9.58       33.28       
C           80.22       -7.16       30.58       
O           79.04       -10.39      34.16       
C           76.68       -9.65       32.84       
H           80.63       -12.21      33.77       
H           85.48       -11.2       34.2        
H           82.2        -13.98      34.6        
H           76.47       -7.42       31.16       
H           81.23       -7.01       30.34       
H           79.77       -5.63       29.11       
H           85.92       -8.68       33.68       
H           85.19       -7.73       32.4        
H           85.85826    -9.32564    32.02938    
H           75.94       -8.83       32.82       
H           76.46935    -10.45048   32.1308     
H           76.74       -10.11      33.88       
C           79.4        -6.38       29.79       
C           77.53       -7.4        30.95       
C           78.03       -6.57       29.93       
C           89.24       -18.21      35.74       
S           89.4        -16.73      34.81       
C           88.1        -18.27      36.48       
C           87.25       -17.23      36.09       
C           87.79       -16.28      35.25       
N           85.96       -16.89      36.41       
C           85.64       -15.74      35.76       
C           86.72       -15.31      35.05       
C           85.14       -17.41      37.45       
H           85.8        -17.69      38.29       
H           84.44       -16.66      37.91       
H           84.5235     -18.22738   37.07594    
H           83.65       -14.72      36.39       
H           87.85       -18.97      37.23       
C           84.58       -14.73      35.8        
S           86.4        -13.83      34.22       
C           84.8        -13.71      34.94       
C           96.91       -26.08      36.41       
C           97.27       -24.73      36.28       
C           95.56       -26.47      36.38       
C           94.64       -25.45      36.2        
C           94.99       -24.07      36.0        
C           96.35       -23.76      36.07       
N           93.27       -25.55      36.2        
C           92.65       -24.32      36.09       
C           93.76       -23.26      35.87       
O           91.46       -24.35      35.95       
C           92.46       -26.57      36.85       
C           93.5        -21.97      35.65       
C           92.25       -21.22      35.8        
C           92.54       -19.86      35.51       
N           93.93       -19.67      35.25       
C           94.55       -20.9       35.29       
C           90.9        -21.43      36.22       
O           95.72       -20.95      35.03       
C           94.68       -18.44      35.37       
H           96.77       -22.73      36.05       
H           95.21       -27.49      36.44       
H           98.33       -24.49      36.16       
H           91.78       -17.83      35.21       
H           90.53       -22.37      36.68       
H           88.96       -20.68      36.39       
H           91.49       -26.19      37.34       
H           92.95       -27.0       37.72       
H           92.0581     -27.30803   36.15581    
H           95.5        -18.55      36.08       
H           95.0603     -18.02513   34.43654    
H           94.02       -17.75      35.85       
C           89.97       -20.44      36.19       
C           91.55       -18.86      35.46       
C           90.29       -19.16      35.77       
C           101.35      -32.42      37.59       
S           99.67       -32.2       37.22       
C           101.92      -31.23      37.94       
C           101.03      -30.17      37.72       
C           99.77       -30.48      37.29       
N           101.1       -28.74      37.76       
C           99.87       -28.27      37.23       
C           99.0        -29.3       37.07       
C           102.3       -27.98      38.03       
H           102.05      -27.04      38.68       
H           102.98      -28.54      38.66       
H           102.78903   -27.65884   37.11032    
H           99.81       -26.06      36.92       
H           102.89      -31.14      38.34       
C           99.36       -26.96      36.87       
S           97.44       -28.79      36.6        
C           97.98       -27.12      36.53       
C           106.49      -42.24      37.08       
C           107.28      -41.09      37.46       
C           105.23      -42.1       36.55       
C           104.61      -40.89      36.5        
C           105.31      -39.76      37.09       
C           106.6       -39.88      37.6        
N           103.29      -40.62      36.11       
C           103.04      -39.31      36.3        
C           104.28      -38.69      36.99       
O           101.98      -38.79      35.97       
C           102.38      -41.41      35.24       
C           104.23      -37.45      37.56       
C           103.26      -36.32      37.39       
C           103.54      -35.31      38.33       
N           104.53      -35.7       39.16       
C           105.03      -37.0       38.82       
C           102.3       -35.9       36.43       
O           105.77      -37.57      39.52       
C           105.08      -34.97      40.31       
H           107.15      -39.06      38.06       
H           104.68      -43.08      36.34       
H           108.23      -41.24      37.96       
H           103.22      -33.39      39.19       
H           102.04      -36.56      35.6        
H           100.88      -34.43      35.61       
H           102.95      -41.84      34.34       
H           101.64      -40.73      34.82       
H           101.93578   -42.20127   35.84387    
H           105.35      -35.66      41.05       
H           105.90394   -34.29452   40.07989    
H           104.3       -34.46      40.87       
C           101.59      -34.7       36.44       
C           102.89      -34.14      38.44       
C           101.89      -33.77      37.51       
C           109.85      -49.16      38.73       
S           109.85      -47.65      39.65       
C           109.19      -49.07      37.53       
C           108.67      -47.79      37.31       
C           108.99      -46.86      38.35       
N           107.91      -47.16      36.31       
C           107.66      -45.8       36.72       
C           108.38      -45.62      37.96       
C           107.37      -47.54      35.0        
H           107.55      -46.71      34.33       
H           106.32      -47.73      35.05       
H           107.83046   -48.45384   34.62455    
H           106.23      -44.62      35.43       
H           108.98      -50.02      37.04       
C           106.94      -44.63      36.25       
S           108.11      -43.97      38.55       
C           107.11      -43.57      37.09       
C           113.81      -58.43      43.72       
C           112.7       -58.45      42.95       
C           114.59      -57.24      43.73       
C           114.0       -56.07      43.16       
C           112.77      -56.03      42.41       
C           112.2       -57.31      42.29       
N           114.62      -54.82      43.08       
C           113.82      -53.89      42.5        
C           112.61      -54.64      41.9        
O           114.19      -52.68      42.56       
C           115.95      -54.52      43.56       
C           111.67      -53.97      41.15       
C           111.51      -52.62      40.55       
C           110.36      -52.62      39.72       
N           109.7       -53.86      39.75       
C           110.48      -54.73      40.55       
C           112.18      -51.38      40.64       
O           109.99      -55.84      40.76       
C           108.77      -54.36      38.78       
H           111.42      -57.41      41.58       
H           115.61      -57.21      44.14       
H           112.31      -59.37      42.61       
H           108.99      -51.52      38.5        
H           113.04      -51.26      41.28       
H           112.13      -49.22      40.25       
H           116.44      -53.76      42.94       
H           116.56      -55.39      43.48       
H           115.98494   -54.17759   44.59423    
H           109.03      -53.88      37.81       
H           107.73541   -54.12848   39.03322    
H           108.99      -55.43      38.68       
C           111.7       -50.2       40.05       
C           109.88      -51.48      39.07       
C           110.5       -50.28      39.35       
C           114.9       -64.98      47.91       
S           113.83      -64.5       46.57       
C           115.86      -63.96      48.03       
C           115.61      -62.83      47.23       
C           114.53      -62.97      46.35       
N           116.14      -61.56      47.02       
C           115.38      -60.92      46.02       
C           114.44      -61.79      45.55       
C           117.33      -61.06      47.68       
H           117.37      -59.96      47.49       
H           118.25      -61.49      47.25       
H           117.25859   -61.20281   48.75824    
H           115.99      -58.71      45.66       
H           116.59      -63.9       48.86       
C           115.35      -59.6       45.46       
S           113.41      -61.07      44.38       
C           114.37      -59.56      44.45       
C           113.3       -73.95      54.4        
C           114.45      -73.17      54.55       
C           112.42      -73.64      53.4        
C           112.57      -72.48      52.62       
C           113.76      -71.65      52.77       
C           114.64      -72.12      53.77       
N           111.76      -72.04      51.59       
C           112.27      -70.87      51.05       
C           113.63      -70.57      51.73       
O           111.77      -70.14      50.17       
C           110.48      -72.63      51.19       
C           114.26      -69.37      51.59       
C           114.37      -68.4       50.45       
C           115.24      -67.36      50.87       
N           115.8       -67.65      52.13       
C           115.27      -68.77      52.6        
C           113.91      -68.32      49.14       
O           115.56      -69.23      53.69       
C           116.86      -67.01      52.84       
H           115.61      -71.64      53.92       
H           111.51      -74.15      53.26       
H           115.2       -73.4       55.3        
H           116.09      -65.4       50.31       
H           113.39      -69.18      48.76       
H           113.55      -67.17      47.4        
H           110.38      -73.63      51.56       
H           109.68      -72.07      51.58       
H           110.37575   -72.5883    50.1058     
H           117.61      -66.53      52.24       
H           116.53159   -66.21038   53.50397    
H           117.37      -67.77      53.33       
C           114.1       -67.24      48.31       
C           115.48      -66.22      50.03       
C           114.82      -66.16      48.76       
C           110.76      -79.89      58.7        
S           110.58      -79.49      56.99       
C           111.42      -78.96      59.39       
C           111.87      -77.88      58.54       
C           111.57      -78.1       57.18       
N           112.64      -76.74      58.63       
C           112.67      -76.21      57.32       
C           112.08      -77.05      56.42       
C           113.23      -75.96      59.74       
H           112.85      -74.91      59.7        
H           114.31      -75.93      59.72       
H           113.09088   -76.41397   60.72115    
H           113.76      -74.3       57.3        
H           111.62      -79.08      60.46       
C           113.27      -75.07      56.73       
S           112.15      -76.37      54.83       
C           113.14      -75.04      55.33       
C           102.85      -87.72      60.83       
C           103.79      -88.0       59.86       
C           103.09      -86.67      61.61       
C           104.17      -85.83      61.3        
C           105.22      -86.05      60.37       
C           104.98      -87.24      59.67       
N           104.45      -84.7       62.01       
C           105.58      -84.09      61.6        
C           106.15      -84.85      60.42       
O           106.0       -83.13      62.12       
C           103.49      -84.14      62.94       
C           107.34      -84.5       59.82       
C           108.19      -83.27      59.91       
C           109.12      -83.28      58.83       
N           109.08      -84.53      58.19       
C           108.07      -85.29      58.76       
C           108.29      -82.01      60.63       
O           107.85      -86.4       58.37       
C           110.13      -85.17      57.5        
H           105.7       -87.49      58.83       
H           102.43      -86.49      62.41       
H           103.65      -88.83      59.24       
H           110.56      -82.24      57.58       
H           107.64      -81.81      61.46       
H           109.04      -80.09      60.89       
H           102.9       -83.37      62.39       
H           102.8       -84.83      63.35       
H           103.96422   -83.84012   63.8745     
H           110.65      -84.34      57.0        
H           110.79645   -85.76555   58.12391    
H           109.77      -85.9       56.71       
C           109.16      -80.97      60.28       
C           109.96      -82.24      58.45       
C           110.06      -81.03      59.2        
C           98.17       -93.88      62.0        
S           99.65       -93.73      61.06       
C           97.83       -92.72      62.46       
C           98.71       -91.68      62.12       
C           99.77       -92.01      61.28       
N           98.76       -90.3       62.45       
C           99.88       -89.83      61.76       
C           100.55      -90.86      61.13       
C           98.14       -89.47      63.46       
H           98.56       -88.44      63.45       
H           98.44       -89.91      64.46       
H           97.05937    -89.42706   63.32403    
H           100.24      -87.67      62.08       
H           96.94       -92.63      63.06       
C           100.55      -88.62      61.7        
S           102.02      -90.28      60.41       
C           101.73      -88.7       61.04       
H           34.79       49.43       10.86       
H           97.97       -94.77      62.5        
