512

C           36.73       36.45       19.37       
C           35.65       37.28       19.64       
C           37.75       36.96       18.54       
C           37.56       38.21       18.02       
C           36.48       39.08       18.31       
C           35.57       38.58       19.2        
N           38.4        38.73       17.06       
C           37.98       40.02       16.72       
C           36.69       40.36       17.54       
O           38.4        40.58       15.72       
C           39.59       38.11       16.5        
C           35.93       41.54       17.38       
C           36.25       42.87       16.71       
C           35.12       43.72       16.9        
N           34.12       42.98       17.73       
C           34.57       41.74       18.05       
C           37.36       43.52       16.12       
O           33.88       40.97       18.6        
C           32.75       43.46       17.95       
H           34.73       39.17       19.53       
H           38.71       36.46       18.43       
H           34.89       36.9        20.33       
H           34.07       45.44       16.27       
H           38.23       42.92       16.03       
H           38.2        45.18       15.22       
H           39.51       37.07       16.38       
H           39.83       38.41       15.48       
H           40.45291    38.4537     17.0704     
H           32.25       43.61       17.03       
H           32.63163    44.37214    18.53488    
H           32.12       42.63       18.33       
C           37.32       44.8        15.59       
C           35.03       44.94       16.24       
C           36.11       45.51       15.58       
C           37.72       29.13       22.16       
S           38.74       30.55       22.24       
C           36.43       29.52       21.84       
C           36.37       30.91       21.39       
C           37.61       31.6        21.51       
N           35.44       31.75       20.82       
C           36.16       32.89       20.47       
C           37.42       32.88       21.05       
C           33.97       31.61       20.85       
H           33.54       32.27       20.1        
H           33.57       31.87       21.85       
H           33.7089     30.55855    20.73004    
H           34.83       34.31       19.53       
H           35.61       28.79       21.86       
C           35.83       34.1        19.87       
S           38.2        34.47       20.89       
C           36.83       35.05       19.92       
C           43.1        19.32       21.07       
C           41.8        19.46       20.63       
C           43.7        20.43       21.76       
C           42.9        21.57       22.03       
C           41.52       21.67       21.72       
C           40.97       20.57       20.93       
N           43.26       22.65       22.86       
C           42.29       23.61       22.98       
C           41.07       23.06       22.2        
O           42.42       24.63       23.59       
C           44.56       22.89       23.4        
C           39.89       23.85       22.15       
C           39.62       25.27       22.32       
C           38.23       25.44       21.99       
N           37.6        24.19       21.82       
C           38.53       23.18       21.98       
C           40.32       26.49       22.54       
O           38.24       22.02       21.75       
C           36.19       23.89       21.59       
H           39.94       20.66       20.53       
H           44.76       20.41       22.03       
H           41.29       18.63       20.17       
H           36.61       26.79       21.63       
H           41.36       26.52       22.75       
H           40.28       28.56       22.86       
H           44.33       23.48       24.29       
H           45.03       21.94       23.67       
H           45.21303    23.46897    22.74697    
H           35.63       24.83       21.77       
H           36.04001    23.48289    20.59007    
H           35.89       23.19       22.38       
C           39.66       27.67       22.62       
C           37.66       26.71       21.89       
C           38.36       27.84       22.34       
C           48.01       13.32       20.07       
S           48.2        14.74       21.14       
C           46.94       13.36       19.28       
C           46.17       14.52       19.59       
C           46.68       15.34       20.58       
N           44.98       15.07       19.06       
C           44.69       16.13       19.81       
C           45.73       16.38       20.69       
C           44.1        14.54       18.02       
H           43.33       15.17       17.63       
H           43.48       13.73       18.38       
H           44.62792    14.23627    17.11604    
H           42.89       17.23       19.09       
H           46.76       12.71       18.4        
C           43.73       17.24       19.79       
S           45.47       17.82       21.6        
C           43.98       18.17       20.74       
C           56.69       6.35        21.01       
C           55.55       6.04        20.23       
C           56.69       7.62        21.58       
C           55.67       8.5         21.4        
C           54.48       8.18        20.67       
C           54.47       6.9         20.09       
N           55.53       9.78        21.93       
C           54.28       10.33       21.63       
C           53.57       9.36        20.76       
O           53.81       11.28       22.33       
C           56.69       10.39       22.62       
C           52.21       9.49        20.45       
C           51.34       10.66       20.3        
C           50.0        10.24       20.02       
N           50.01       8.89        19.83       
C           51.34       8.37        19.97       
C           51.5        12.04       20.45       
O           51.61       7.2         19.82       
C           48.81       8.04        19.87       
H           53.6        6.61        19.54       
H           57.58       7.86        22.17       
H           55.39       5.08        19.81       
H           48.0        10.61       19.44       
H           52.52       12.42       20.65       
H           50.46       13.92       20.72       
H           56.62       10.24       23.72       
H           57.62       10.07       22.1        
H           56.69745    11.47791    22.55294    
H           47.97       8.55        20.25       
H           48.52227    7.63717     18.8989     
H           49.08       7.21        20.57       
C           50.41       12.89       20.45       
C           48.93       11.04       19.77       
C           49.14       12.4        20.09       
C           62.96       2.03        22.93       
S           62.73       3.69        22.35       
C           61.76       1.44        22.79       
C           60.62       2.24        22.4        
C           61.01       3.52        22.13       
N           59.22       2.11        22.3        
C           58.72       3.37        21.99       
C           59.84       4.22        21.79       
C           58.42       0.96        22.67       
H           57.55       1.01        22.07       
H           58.1        1.13        23.62       
H           58.90548    0.00331     22.47723    
H           56.45       3.63        21.81       
H           61.7        0.37        22.94       
C           57.46       4.04        21.71       
S           59.38       5.82        21.43       
C           57.67       5.34        21.4        
C           72.65       -3.59       24.55       
C           72.55       -2.4        23.84       
C           71.48       -4.04       25.13       
C           70.26       -3.36       24.91       
C           70.17       -2.13       24.19       
C           71.33       -1.71       23.64       
N           68.98       -3.66       25.45       
C           68.07       -2.62       25.14       
C           68.75       -1.67       24.18       
O           66.92       -2.73       25.49       
C           68.75       -4.94       26.07       
C           68.09       -0.62       23.61       
C           66.75       -0.01       23.67       
C           66.62       1.07        22.74       
N           67.86       1.22        22.03       
C           68.72       0.29        22.56       
C           65.52       -0.31       24.3        
O           69.88       0.41        22.03       
C           68.09       2.04        20.88       
H           71.46       -0.84       23.08       
H           71.53       -4.99       25.64       
H           73.5        -1.96       23.47       
H           65.29       2.48        21.72       
H           65.48       -1.04       25.05       
H           63.45       -0.0        24.58       
H           68.17       -5.58       25.44       
H           69.67       -5.52       26.22       
H           68.29122    -4.82531    27.05207    
H           67.22       2.13        20.21       
H           68.35872    3.05977     21.15561    
H           68.92       1.75        20.27       
C           64.33       0.31        24.04       
C           65.36       1.76        22.53       
C           64.23       1.38        23.22       
C           78.97       -8.09       25.74       
S           77.46       -7.93       26.64       
C           78.92       -7.23       24.58       
C           77.79       -6.42       24.43       
C           76.85       -6.71       25.48       
N           77.29       -5.45       23.59       
C           76.05       -5.04       24.15       
C           75.66       -5.92       25.19       
C           77.88       -4.95       22.36       
H           77.55       -3.95       22.17       
H           77.48       -5.47       21.47       
H           78.9695     -4.93518    22.38965    
H           75.07       -3.33       23.05       
H           79.82       -7.2        23.97       
C           75.03       -4.1        23.83       
S           74.05       -5.65       25.77       
C           73.91       -4.29       24.63       
C           87.65       -13.84      29.93       
C           86.37       -13.84      30.53       
C           87.75       -13.22      28.64       
C           86.66       -12.7       27.97       
C           85.35       -12.65      28.59       
C           85.29       -13.22      29.9        
N           86.53       -12.31      26.68       
C           85.35       -11.57      26.49       
C           84.45       -11.94      27.67       
O           85.07       -10.96      25.45       
C           87.6        -12.09      25.78       
C           83.08       -11.57      27.77       
C           82.2        -10.69      27.01       
C           80.89       -10.71      27.59       
N           80.86       -11.66      28.63       
C           82.09       -12.26      28.74       
C           82.31       -9.78       25.94       
O           82.32       -13.16      29.54       
C           79.74       -11.99      29.5        
H           84.38       -13.27      30.42       
H           88.7        -13.18      28.17       
H           86.22       -14.37      31.45       
H           78.84       -10.1       27.45       
H           83.28       -9.63       25.47       
H           81.43       -8.28       24.75       
H           88.51       -11.87      26.32       
H           87.47       -11.3       25.01       
H           87.82056    -12.99981   25.22171    
H           79.26       -11.06      29.92       
H           79.02319    -12.6014    28.95185    
H           80.13       -12.55      30.4        
C           81.27       -8.94       25.56       
C           79.83       -9.91       27.08       
C           80.01       -8.95       26.16       
C           93.66       -17.83      32.89       
S           93.44       -17.07      31.32       
C           92.57       -17.64      33.7        
C           91.64       -16.83      33.05       
C           91.9        -16.49      31.72       
N           90.4        -16.31      33.3        
C           89.99       -15.56      32.23       
C           90.85       -15.74      31.21       
C           89.95       -16.03      34.66       
H           90.89       -15.94      35.26       
H           89.49       -15.08      34.63       
H           89.35374    -16.84177   35.07666    
H           88.19       -14.4       32.67       
H           92.39       -18.11      34.68       
C           88.9        -14.75      31.94       
S           90.17       -15.0       29.8        
C           88.76       -14.44      30.63       
C           101.28      -26.12      34.05       
C           101.46      -25.06      33.17       
C           100.25      -25.93      35.01       
C           99.41       -24.82      34.88       
C           99.55       -23.78      33.9        
C           100.69      -23.94      33.08       
N           98.27       -24.6       35.67       
C           97.72       -23.35      35.39       
C           98.38       -22.86      34.15       
O           96.76       -22.9       36.01       
C           97.54       -25.61      36.4        
C           97.92       -21.78      33.37       
C           96.87       -20.75      33.55       
C           96.61       -20.09      32.36       
N           97.58       -20.44      31.4        
C           98.43       -21.38      31.99       
C           96.02       -20.28      34.59       
O           99.3        -21.87      31.29       
C           97.65       -20.01      30.01       
H           100.96      -23.22      32.31       
H           99.94       -26.78      35.65       
H           102.18      -25.12      32.35       
H           95.49       -18.73      31.1        
H           96.16       -20.66      35.63       
H           94.4        -18.99      35.22       
H           96.99       -25.11      37.23       
H           98.18       -26.42      36.87       
H           96.73772    -26.01114   35.7807     
H           96.67       -19.88      29.58       
H           98.22626    -19.09937   29.84637    
H           98.3        -20.7       29.52       
C           95.01       -19.29      34.4        
C           95.58       -19.22      32.06       
C           94.76       -18.8       33.14       
C           104.02      -33.4       33.86       
S           102.55      -32.7       34.58       
C           104.7       -32.49      33.08       
C           104.12      -31.17      33.12       
C           103.02      -31.13      33.96       
N           104.39      -29.84      32.68       
C           103.39      -29.06      33.21       
C           102.55      -29.79      34.06       
C           105.52      -29.42      31.85       
H           105.94      -28.51      32.02       
H           106.43      -30.02      32.14       
H           105.26447   -29.60455   30.80657    
H           103.5       -27.04      32.5        
H           105.62      -32.81      32.66       
C           103.01      -27.69      33.13       
S           101.28      -28.83      34.68       
C           101.99      -27.42      33.96       
C           106.46      -44.51      34.96       
C           107.39      -43.6       34.72       
C           105.18      -43.99      35.25       
C           104.91      -42.63      34.88       
C           105.86      -41.68      34.46       
C           107.19      -42.24      34.5        
N           103.65      -42.07      34.96       
C           103.69      -40.73      34.67       
C           105.1       -40.34      34.37       
O           102.67      -39.99      34.76       
C           102.42      -42.82      34.79       
C           105.52      -39.03      34.23       
C           104.91      -37.63      34.29       
C           105.89      -36.67      33.87       
N           107.06      -37.34      33.56       
C           106.99      -38.71      33.77       
C           103.63      -37.08      34.6        
O           107.94      -39.41      33.49       
C           108.35      -36.75      33.69       
H           108.16      -41.69      34.42       
H           104.4       -44.72      35.55       
H           108.44      -43.84      34.83       
H           106.48      -34.8       33.43       
H           102.83      -37.75      34.92       
H           102.48      -35.4       34.98       
H           102.6       -43.73      34.24       
H           101.65      -42.17      34.29       
H           101.9705    -43.15534   35.72467    
H           108.95      -37.31      34.33       
H           108.76995   -36.37276   32.75757    
H           108.07      -35.98      34.38       
C           103.46      -35.67      34.67       
C           105.62      -35.31      33.76       
C           104.38      -34.8       34.06       
C           108.73      -51.53      37.36       
S           109.66      -50.07      37.0        
C           107.41      -51.45      36.95       
C           107.13      -50.11      36.63       
C           108.2       -49.25      36.55       
N           106.06      -49.38      36.26       
C           106.42      -48.14      36.0        
C           107.79      -47.97      36.13       
C           104.7       -49.82      35.9        
H           104.16      -48.84      35.77       
H           104.17      -50.32      36.73       
H           104.66537   -50.36722   34.95795    
H           104.72      -46.76      35.41       
H           106.76      -52.33      37.05       
C           105.82      -46.85      35.62       
S           108.31      -46.35      35.69       
C           106.72      -45.87      35.43       
C           114.11      -59.83      42.23       
C           112.89      -60.0       41.62       
C           114.89      -58.72      41.89       
C           114.41      -57.77      40.97       
C           113.12      -57.95      40.35       
C           112.48      -59.14      40.68       
N           114.95      -56.49      40.6        
C           114.09      -55.85      39.69       
C           112.79      -56.69      39.54       
O           114.49      -54.82      39.16       
C           116.15      -55.82      41.1        
C           111.67      -56.24      38.87       
C           111.23      -54.87      38.39       
C           109.87      -55.0       37.91       
N           109.53      -56.34      37.85       
C           110.5       -57.13      38.44       
C           111.68      -53.56      38.55       
O           110.41      -58.31      38.49       
C           108.6       -56.92      36.92       
H           111.42      -59.22      40.44       
H           115.91      -58.63      42.31       
H           112.22      -60.79      41.85       
H           108.06      -54.16      37.27       
H           112.56      -53.42      39.14       
H           111.27      -51.41      38.49       
H           116.54      -55.1       40.38       
H           116.89      -56.58      41.32       
H           115.84793   -55.25019   41.97874    
H           108.48      -56.23      36.14       
H           107.68008   -57.21238   37.42631    
H           109.06      -57.75      36.45       
C           110.81      -52.47      38.29       
C           109.08      -53.97      37.58       
C           109.51      -52.65      37.74       
C           114.95      -65.1       47.8        
S           113.9       -65.07      46.36       
C           115.72      -63.92      47.95       
C           115.47      -63.03      46.87       
C           114.56      -63.5       45.91       
N           115.96      -61.79      46.48       
C           115.35      -61.53      45.3        
C           114.49      -62.57      44.9        
C           116.78      -60.88      47.26       
H           116.59      -59.96      46.75       
H           117.82      -61.08      47.01       
H           116.61977   -60.85815   48.33794    
H           115.93      -59.59      44.31       
H           116.4       -63.7       48.79       
C           115.39      -60.54      44.26       
S           113.65      -62.26      43.42       
C           114.46      -60.74      43.3        
C           113.1       -73.37      55.14       
C           113.41      -72.14      55.54       
C           113.45      -73.7       53.81       
C           113.86      -72.82      52.83       
C           114.08      -71.48      53.23       
C           113.87      -71.15      54.6        
N           113.95      -73.0       51.47       
C           114.29      -71.79      50.89       
C           114.47      -70.76      51.99       
O           114.34      -71.63      49.69       
C           113.75      -74.27      50.82       
C           114.76      -69.39      51.82       
C           114.72      -68.48      50.58       
C           115.22      -67.19      50.92       
N           115.44      -67.16      52.23       
C           115.2       -68.31      52.85       
C           114.42      -68.63      49.18       
O           115.41      -68.4       54.03       
C           116.06      -66.08      53.02       
H           114.0       -70.17      54.96       
H           113.15      -74.67      53.55       
H           113.14      -71.91      56.58       
H           115.51      -65.03      50.42       
H           114.08      -69.61      48.79       
H           114.18      -67.64      47.33       
H           113.85      -75.12      51.52       
H           112.71      -74.38      50.41       
H           114.4704    -74.54375   50.04917    
H           115.49      -65.9       53.96       
H           117.1072    -66.30678   53.2201     
H           116.05      -65.17      52.39       
C           114.46      -67.49      48.33       
C           115.18      -66.05      50.06       
C           114.84      -66.2       48.72       
C           108.19      -78.38      58.62       
S           109.6       -78.68      57.62       
C           108.03      -77.01      58.98       
C           109.06      -76.22      58.38       
C           110.0       -76.96      57.64       
N           109.41      -74.87      58.31       
C           110.5       -74.77      57.44       
C           110.9       -76.01      57.05       
C           109.04      -73.78      59.16       
H           109.62      -72.9       58.88       
H           109.27      -74.02      60.18       
H           107.98227   -73.51909   59.12474    
H           110.99      -72.65      56.95       
H           107.26      -76.62      59.61       
C           111.24      -73.69      56.89       
S           112.29      -75.86      55.97       
C           112.19      -74.15      56.02       
C           100.74      -86.59      60.25       
C           101.84      -86.77      59.38       
C           100.51      -85.33      60.79       
C           101.37      -84.28      60.44       
C           102.63      -84.44      59.72       
C           102.7       -85.71      59.13       
N           101.27      -82.98      60.98       
C           102.34      -82.24      60.48       
C           103.28      -83.15      59.59       
O           102.3       -81.03      60.54       
C           100.18      -82.61      61.87       
C           104.46      -82.72      59.02       
C           105.24      -81.46      59.06       
C           106.24      -81.53      58.13       
N           106.1       -82.67      57.33       
C           105.12      -83.48      57.83       
C           105.13      -80.3       59.77       
O           104.81      -84.58      57.3        
C           106.46      -82.72      55.97       
H           103.58      -86.0       58.54       
H           99.68       -85.23      61.52       
H           101.84      -87.67      58.78       
H           108.13      -80.73      57.27       
H           104.47      -80.2       60.56       
H           105.81      -78.28      60.12       
H           99.24       -82.34      61.37       
H           99.86       -83.49      62.43       
H           100.43907   -81.7896    62.53927    
H           106.36      -81.74      55.5        
H           107.49627   -82.99124   55.76831    
H           105.79      -83.41      55.44       
C           105.98      -79.21      59.53       
C           107.26      -80.61      57.99       
C           107.16      -79.39      58.72       
C           97.59       -93.13      63.2        
S           99.22       -92.73      62.65       
C           96.75       -92.05      63.01       
C           97.42       -90.95      62.36       
C           98.77       -91.11      62.25       
N           97.0        -89.71      61.84       
C           98.19       -89.09      61.47       
C           99.31       -89.91      61.77       
C           95.65       -89.26      61.54       
H           95.71       -88.22      61.45       
H           94.97       -89.43      62.35       
H           95.23856    -89.67879   60.62161    
H           97.95       -86.96      60.77       
H           95.65       -92.06      63.27       
C           98.59       -87.84      60.88       
S           100.81      -89.24      61.2        
C           99.94       -87.77      60.74       
H           36.15       46.58       15.4        
H           97.28       -93.91      63.88       
