512

C           26.55       9.66        39.38       
C           26.46       8.3         39.75       
C           25.55       10.22       38.59       
C           24.53       9.36        38.17       
C           24.41       7.98        38.64       
C           25.4        7.54        39.54       
N           23.35       9.77        37.5        
C           22.5        8.67        37.28       
C           23.18       7.49        37.91       
O           21.46       8.8         36.63       
C           22.96       11.2        37.24       
C           22.74       6.18        37.76       
C           21.9        5.51        36.72       
C           21.88       4.16        36.96       
N           22.66       3.83        38.09       
C           23.25       4.99        38.62       
C           21.16       5.86        35.55       
O           24.03       4.88        39.58       
C           23.03       2.5         38.59       
H           25.41       6.56        40.07       
H           25.58       11.26       38.3        
H           27.3        7.9         40.37       
H           21.21       2.14        36.38       
H           21.13       6.87        35.31       
H           19.97       5.39        33.9        
H           23.64       11.84       37.69       
H           23.05       11.45       36.16       
H           21.94653    11.4013     37.58708    
H           23.21       1.8         37.75       
H           22.29707    2.17806     39.32978    
H           24.01       2.5         39.1        
C           20.51       4.96        34.72       
C           21.21       3.2         36.17       
C           20.56       3.59        34.97       
C           32.53       13.06       43.14       
S           31.48       11.76       43.58       
C           32.01       13.79       42.06       
C           30.89       13.13       41.52       
C           30.51       11.95       42.16       
N           30.05       13.25       40.42       
C           29.09       12.2        40.43       
C           29.45       11.34       41.46       
C           30.21       14.15       39.3        
H           29.36       14.1        38.69       
H           30.99       13.78       38.64       
H           30.38569    15.17603    39.62327    
H           27.67       12.11       38.67       
H           32.4        14.66       41.6        
C           27.99       11.71       39.63       
S           28.31       10.06       41.58       
C           27.51       10.52       40.08       
C           43.1        13.24       46.81       
C           42.24       12.11       47.14       
C           42.53       14.37       46.17       
C           41.16       14.38       45.81       
C           40.3        13.32       46.11       
C           40.88       12.18       46.73       
N           40.53       15.43       45.11       
C           39.18       15.1        45.08       
C           38.95       13.67       45.6        
O           38.45       15.9        44.59       
C           41.12       16.74       44.76       
C           37.7        13.03       45.55       
C           36.41       13.38       44.87       
C           35.46       12.39       45.25       
N           35.97       11.4        46.07       
C           37.27       11.68       46.29       
C           35.93       14.42       44.0        
O           37.96       11.01       47.0        
C           35.32       10.41       46.91       
H           40.33       11.24       46.68       
H           43.11       15.21       45.96       
H           42.7        11.18       47.52       
H           33.55       11.52       45.1        
H           36.58       15.13       43.51       
H           34.45       14.97       42.64       
H           42.21       16.68       44.86       
H           40.91       16.9        43.72       
H           40.67186    17.51874    45.37712    
H           34.33       10.84       47.23       
H           35.15893    9.42956     46.4618     
H           35.92       10.42       47.83       
C           34.67       14.28       43.47       
C           34.18       12.29       44.74       
C           33.79       13.27       43.83       
C           50.67       13.76       48.82       
S           49.69       15.0        48.07       
C           49.97       12.61       49.06       
C           48.69       12.62       48.47       
C           48.32       13.91       48.0        
N           47.64       11.73       48.48       
C           46.56       12.41       47.87       
C           46.94       13.72       47.63       
C           47.55       10.4        49.14       
H           46.5        10.06       49.21       
H           48.05       10.44       50.15       
H           48.1048     9.64856     48.57818    
H           44.75       11.07       47.61       
H           50.39       11.75       49.49       
C           45.22       12.08       47.47       
S           45.59       14.63       47.02       
C           44.55       13.21       47.06       
C           61.65       15.58       48.94       
C           61.15       14.64       49.77       
C           60.86       16.38       48.05       
C           59.51       16.04       48.02       
C           58.94       15.1        48.85       
C           59.77       14.49       49.77       
N           58.51       16.81       47.4        
C           57.25       16.22       47.64       
C           57.44       15.04       48.6        
O           56.18       16.65       47.14       
C           58.87       18.01       46.67       
C           56.41       14.25       48.97       
C           54.91       14.47       49.03       
C           54.32       13.26       49.42       
N           55.3        12.35       49.62       
C           56.58       12.84       49.41       
C           54.01       15.5        48.72       
O           57.54       12.16       49.44       
C           55.11       11.02       50.17       
H           59.35       13.7        50.33       
H           61.25       17.17       47.41       
H           61.81       13.93       50.3        
H           52.62       12.03       49.55       
H           54.37       16.52       48.63       
H           51.96       16.13       48.48       
H           59.65       18.53       47.23       
H           59.47       17.76       45.77       
H           58.06528    18.63914    46.28959    
H           55.89       10.36       49.88       
H           54.89903    11.02       51.23939    
H           54.28       10.68       49.57       
C           52.61       15.27       48.69       
C           52.98       13.01       49.38       
C           52.1        13.99       49.07       
C           69.02       17.99       49.27       
S           67.54       18.9        48.87       
C           68.84       16.65       49.3        
C           67.52       16.31       49.03       
C           66.67       17.4        48.93       
N           66.71       15.15       49.08       
C           65.37       15.52       49.07       
C           65.34       16.9        48.83       
C           67.2        13.82       49.09       
H           66.41       13.17       48.75       
H           67.52       13.56       50.14       
H           68.06019    13.66947    48.43769    
H           63.86       13.92       49.4        
H           69.59       15.9        49.53       
C           64.09       14.96       49.26       
S           63.73       17.44       48.66       
C           63.08       15.81       48.98       
C           78.58       23.64       51.35       
C           77.35       24.29       51.31       
C           78.57       22.27       51.19       
C           77.35       21.56       51.09       
C           76.16       22.22       50.78       
C           76.19       23.6        50.94       
N           77.2        20.17       51.07       
C           75.87       19.88       50.83       
C           75.11       21.21       50.52       
O           75.5        18.72       50.77       
C           78.18       19.19       51.3        
C           73.74       21.25       50.05       
C           72.71       20.18       49.9        
C           71.5        20.83       49.56       
N           71.74       22.18       49.29       
C           73.05       22.5        49.49       
C           72.66       18.78       49.98       
O           73.5        23.67       49.4        
C           70.71       23.22       49.19       
H           75.27       24.13       50.81       
H           79.51       21.69       51.19       
H           77.31       25.32       51.48       
H           69.44       20.73       48.95       
H           73.48       18.22       50.28       
H           71.44       16.97       49.93       
H           79.07       19.73       51.6        
H           77.99       18.52       52.19       
H           78.3219     18.61531    50.38475    
H           70.03       22.85       48.34       
H           70.15303    23.39138    50.11115    
H           71.09       24.13       48.81       
C           71.53       18.04       49.78       
C           70.34       20.14       49.28       
C           70.31       18.72       49.44       
C           85.16       27.17       53.76       
S           85.01       25.69       52.79       
C           84.0        27.82       53.91       
C           82.87       27.02       53.32       
C           83.3        25.81       52.69       
N           81.5        27.1        53.33       
C           81.06       26.0        52.7        
C           82.1        25.13       52.32       
C           80.69       27.81       54.27       
H           79.6        27.67       53.96       
H           80.82       28.87       54.1        
H           80.88408    27.5466     55.30974    
H           78.9        26.15       52.56       
H           83.87       28.75       54.37       
C           79.79       25.58       52.33       
S           81.38       23.7        51.49       
C           79.77       24.35       51.67       
C           94.38       30.61       59.49       
C           94.43       29.68       58.45       
C           93.1        31.14       59.65       
C           92.0        30.73       58.89       
C           92.11       29.82       57.8        
C           93.45       29.37       57.53       
N           90.65       31.02       59.12       
C           89.87       30.46       58.19       
C           90.7        29.6        57.26       
O           88.65       30.72       58.17       
C           90.1        31.48       60.39       
C           90.16       28.86       56.18       
C           88.81       28.55       55.68       
C           88.85       27.84       54.47       
N           90.16       27.77       54.12       
C           91.05       28.22       55.12       
C           87.48       28.71       56.13       
O           92.22       28.32       54.91       
C           90.66       26.89       53.08       
H           93.74       28.75       56.72       
H           92.98       31.81       60.52       
H           95.44       29.33       58.11       
H           87.8        26.93       52.85       
H           87.35       29.25       57.07       
H           85.38       28.46       56.12       
H           89.06       31.86       60.24       
H           90.64       32.37       60.69       
H           90.1        30.69087    61.14191    
H           91.67       27.11       52.81       
H           90.55309    25.828      53.30095    
H           90.11       27.1        52.18       
C           86.31       28.3        55.56       
C           87.66       27.48       53.77       
C           86.37       27.64       54.34       
C           100.79      31.73       63.89       
S           100.65      31.52       62.15       
C           99.58       32.13       64.4        
C           98.54       31.83       63.47       
C           98.94       31.5        62.18       
N           97.15       31.77       63.47       
C           96.75       31.46       62.21       
C           97.8        31.4        61.39       
C           96.3        32.08       64.62       
H           96.61       33.0        65.17       
H           95.26       32.31       64.31       
H           96.3915     31.27759    65.35203    
H           94.5        31.59       61.99       
H           99.34       32.29       65.41       
C           95.46       31.45       61.57       
S           97.23       31.04       59.77       
C           95.52       31.05       60.31       
C           110.23      27.86       68.15       
C           110.31      28.7        67.09       
C           109.06      27.9        68.96       
C           107.96      28.55       68.47       
C           107.99      29.32       67.35       
C           109.23      29.52       66.72       
N           106.7       28.67       69.13       
C           105.84      29.34       68.28       
C           106.59      29.74       67.07       
O           104.74      29.46       68.67       
C           106.28      28.18       70.44       
C           105.98      30.36       66.05       
C           104.55      30.74       65.81       
C           104.46      31.15       64.43       
N           105.67      31.09       63.81       
C           106.63      30.67       64.73       
C           103.34      30.81       66.47       
O           107.8       30.6        64.38       
C           105.78      31.14       62.39       
H           109.32      30.2        65.91       
H           109.09      27.35       69.89       
H           111.19      28.68       66.38       
H           103.22      31.75       62.72       
H           103.25      30.45       67.46       
H           101.26      30.99       66.52       
H           107.02      27.46       70.85       
H           105.4       27.58       70.32       
H           106.13976   29.01441    71.12716    
H           104.9       30.63       61.85       
H           105.9792    32.14285    62.01222    
H           106.66      30.54       62.04       
C           102.15      31.04       65.86       
C           103.28      31.48       63.75       
C           102.06      31.49       64.52       
C           115.09      21.89       69.7        
S           113.48      22.17       70.23       
C           115.54      22.81       68.76       
C           114.5       23.8        68.59       
C           113.35      23.62       69.32       
N           114.5       25.01       67.82       
C           113.22      25.53       68.04       
C           112.54      24.68       68.95       
C           115.49      25.56       66.91       
H           116.25      24.73       66.68       
H           115.18      25.79       65.94       
H           116.014     26.4429     67.27608    
H           112.8       27.59       67.03       
H           116.51      22.74       68.29       
C           112.45      26.73       67.63       
S           111.03      25.37       69.33       
C           111.26      26.78       68.32       
C           120.82      14.31       75.34       
C           119.46      14.52       75.52       
C           121.48      14.94       74.33       
C           120.79      15.74       73.48       
C           119.39      16.03       73.61       
C           118.74      15.39       74.7        
N           121.31      16.35       72.3        
C           120.3       17.12       71.81       
C           118.98      16.95       72.56       
O           120.46      17.82       70.79       
C           122.64      16.32       71.76       
C           117.77      17.51       72.27       
C           117.4       18.65       71.37       
C           115.99      18.76       71.52       
N           115.47      17.71       72.27       
C           116.47      16.91       72.69       
C           118.01      19.6        70.57       
O           116.39      15.79       73.22       
C           114.09      17.48       72.69       
H           117.72      15.51       74.9        
H           122.53      14.77       74.26       
H           118.99      14.01       76.33       
H           114.18      19.81       71.18       
H           119.05      19.57       70.47       
H           117.75      21.58       69.69       
H           123.38      16.62       72.5        
H           122.74      17.04       70.92       
H           122.9152    15.36033    71.3225     
H           113.93      16.44       73.03       
H           113.79596   18.14698    73.50042    
H           113.42      17.64       71.8        
C           117.29      20.71       70.12       
C           115.23      19.72       71.0        
C           115.87      20.81       70.32       
C           123.71      8.64        80.0        
S           122.38      9.74        80.22       
C           124.4       8.9         78.9        
C           123.91      9.99        78.14       
C           122.76      10.55       78.73       
N           124.2       10.7        77.0        
C           123.17      11.64       76.79       
C           122.35      11.61       77.87       
C           125.46      10.52       76.25       
H           125.68      11.39       75.68       
H           125.43      9.71        75.47       
H           126.31856   10.35544    76.90107    
H           123.29      12.78       74.92       
H           125.2       8.23        78.62       
C           122.76      12.64       75.84       
S           121.08      12.8        77.75       
C           121.56      13.29       76.16       
C           122.28      -0.67       85.27       
C           122.23      0.46        86.03       
C           123.16      -0.69       84.17       
C           123.82      0.45        83.8        
C           123.56      1.73        84.39       
C           122.83      1.66        85.61       
N           124.68      0.62        82.74       
C           124.9       1.94        82.51       
C           124.13      2.81        83.5        
O           125.58      2.31        81.58       
C           125.41      -0.4        82.05       
C           124.13      4.19        83.49       
C           124.17      5.2         82.42       
C           123.86      6.44        82.99       
N           123.66      6.3         84.38       
C           123.79      5.01        84.72       
C           124.43      5.13        81.07       
O           123.56      4.55        85.82       
C           123.26      7.36        85.34       
H           122.58      2.57        86.17       
H           123.26      -1.56       83.51       
H           121.45      0.56        86.78       
H           123.47      8.59        82.68       
H           124.62      4.19        80.62       
H           124.48      6.1         79.23       
H           125.17      -0.4        80.95       
H           125.14      -1.37       82.38       
H           126.48659   -0.33789    82.20873    
H           122.32      7.69        85.01       
H           124.0398    8.09802     85.52799    
H           123.04      6.91        86.27       
C           124.24      6.2         80.28       
C           123.78      7.67        82.25       
C           123.96      7.49        80.85       
C           116.74      -6.08       85.51       
S           117.55      -5.32       84.19       
C           117.16      -5.59       86.71       
C           118.08      -4.56       86.56       
C           118.5       -4.37       85.23       
N           118.79      -3.71       87.44       
C           119.68      -3.05       86.61       
C           119.52      -3.42       85.29       
C           118.89      -3.76       88.88       
H           119.63      -3.03       89.2        
H           119.42      -4.65       89.07       
H           117.97619   -3.87247    89.46343    
H           120.78      -1.47       87.71       
H           116.81      -6.07       87.63       
C           120.59      -1.99       86.75       
S           120.51      -2.52       84.23       
C           121.2       -1.64       85.58       
C           108.39      -13.31      83.09       
C           109.25      -12.76      82.18       
C           108.72      -13.02      84.44       
C           109.72      -12.15      84.68       
C           110.51      -11.42      83.77       
C           110.23      -11.83      82.43       
N           110.16      -11.73      85.96       
C           111.16      -10.78      85.88       
C           111.6       -10.64      84.43       
O           111.71      -10.41      86.96       
C           109.84      -12.32      87.19       
C           112.73      -9.92       83.97       
C           113.77      -9.09       84.67       
C           114.64      -8.56       83.71       
N           114.21      -9.02       82.47       
C           113.19      -9.95       82.54       
C           113.98      -8.59       85.96       
O           112.7       -10.36      81.5        
C           115.07      -8.88       81.25       
H           110.8       -11.46      81.62       
H           108.23      -13.56      85.28       
H           109.05      -13.06      81.09       
H           116.39      -7.37       83.27       
H           113.35      -8.96       86.83       
H           114.87      -7.13       87.22       
H           109.39      -13.25      86.94       
H           110.74      -12.54      87.75       
H           109.17962   -11.67338   87.76783    
H           114.96      -9.77       80.72       
H           114.80204   -7.99647    80.67063    
H           116.07      -8.91       81.44       
C           114.84      -7.55       86.26       
C           115.68      -7.69       84.02       
C           115.82      -7.22       85.32       
C           102.9       -18.56      81.77       
S           103.16      -17.42      83.07       
C           103.96      -18.55      80.86       
C           104.93      -17.56      81.15       
C           104.6       -16.84      82.28       
N           106.12      -17.08      80.65       
C           106.45      -16.02      81.46       
C           105.54      -15.83      82.44       
C           107.01      -17.65      79.68       
H           108.03      -17.61      80.1        
H           107.02      -17.2       78.71       
H           106.77711   -18.68744   79.44005    
H           108.46      -15.36      81.08       
H           104.0       -19.23      80.04       
C           107.61      -15.26      81.68       
S           105.92      -14.47      83.47       
C           107.46      -14.31      82.62       
C           93.71       -25.07      80.81       
C           94.32       -24.45      79.72       
C           94.37       -24.89      82.06       
C           95.44       -24.03      82.22       
C           96.12       -23.48      81.1        
C           95.53       -23.66      79.8        
N           96.04       -23.64      83.39       
C           97.1        -22.77      83.17       
C           97.2        -22.57      81.65       
O           97.84       -22.36      84.06       
C           95.27       -23.86      84.59       
C           98.3        -21.9       81.08       
C           99.49       -21.14      81.56       
C           100.46      -20.97      80.54       
N           99.93       -21.61      79.4        
C           98.6        -22.04      79.6        
C           99.97       -20.59      82.81       
O           98.05       -22.6       78.65       
C           100.62      -22.0       78.22       
H           95.87       -23.21      78.9        
H           93.92       -25.29      82.92       
H           93.89       -24.72      78.73       
H           102.11      -20.09      79.77       
H           99.34       -20.82      83.73       
H           101.29      -19.36      83.84       
H           94.2        -23.49      84.38       
H           95.18       -24.93      84.85       
H           95.63086    -23.41423   85.51691    
H           100.41      -23.07      78.11       
H           100.40792   -21.37789   77.35046    
H           101.68      -21.87      78.36       
C           100.99      -19.74      82.87       
C           101.59      -20.19      80.63       
C           101.82      -19.51      81.78       
C           87.8        -29.49      78.37       
S           88.51       -28.0       77.75       
C           88.35       -29.77      79.6        
C           89.24       -28.8       80.05       
C           89.51       -27.82      79.15       
N           90.08       -28.59      81.21       
C           90.87       -27.53      80.93       
C           90.57       -27.04      79.63       
C           89.99       -29.28      82.48       
H           90.51       -28.63      83.28       
H           90.52       -30.28      82.45       
H           88.96097    -29.28      82.83945    
H           92.36       -26.95      82.49       
H           88.08       -30.65      80.13       
C           91.93       -26.77      81.55       
S           91.73       -25.85      79.14       
C           92.53       -25.88      80.66       
H           19.83       2.9         34.51       
H           87.32       -30.26      77.76       
