512

C           37.94       37.3        17.82       
C           37.19       38.01       18.76       
C           38.04       37.91       16.51       
C           37.61       39.22       16.3        
C           36.88       39.92       17.29       
C           36.71       39.27       18.54       
N           37.72       39.92       15.07       
C           37.09       41.14       15.21       
C           36.59       41.27       16.63       
O           37.03       41.91       14.28       
C           38.65       39.54       13.97       
C           35.91       42.37       17.06       
C           35.72       43.73       16.44       
C           34.75       44.38       17.23       
N           34.37       43.63       18.33       
C           35.02       42.38       18.34       
C           36.14       44.51       15.29       
O           34.84       41.48       19.16       
C           33.48       44.03       19.4        
H           36.29       39.77       19.38       
H           38.41       37.38       15.69       
H           36.95       37.5        19.68       
H           33.47       46.07       17.52       
H           36.96       44.15       14.62       
H           36.22       46.32       14.38       
H           39.43       39.0        14.39       
H           38.2        38.88       13.28       
H           39.18268    40.34603    13.46536    
H           32.56       44.46       19.08       
H           34.00111    44.67083    20.11125    
H           33.36       43.16       20.0        
C           35.8        45.84       15.17       
C           34.31       45.66       16.94       
C           34.88       46.49       15.94       
C           40.24       29.77       17.18       
S           40.9        31.23       16.5        
C           39.36       30.05       18.24       
C           39.14       31.44       18.32       
C           39.9        32.27       17.52       
N           38.21       32.25       18.98       
C           38.38       33.63       18.57       
C           39.41       33.6        17.65       
C           37.05       31.81       19.71       
H           36.43       32.68       20.03       
H           37.31       31.2        20.63       
H           36.42585    31.20713    19.05039    
H           36.84       35.13       19.32       
H           38.85       29.31       18.82       
C           37.8        34.94       18.77       
S           39.67       35.17       16.97       
C           38.42       35.9        17.99       
C           44.45       19.81       13.94       
C           43.76       19.95       15.13       
C           44.64       20.96       13.19       
C           44.07       22.19       13.65       
C           43.28       22.32       14.78       
C           43.22       21.22       15.61       
N           44.26       23.4        13.02       
C           43.54       24.37       13.65       
C           42.94       23.74       14.9        
O           43.53       25.52       13.32       
C           44.92       23.72       11.75       
C           42.13       24.49       15.83       
C           41.87       25.95       15.99       
C           40.78       26.08       16.95       
N           40.3        24.84       17.29       
C           41.21       23.89       16.94       
C           42.35       27.15       15.51       
O           40.97       22.71       17.2        
C           39.31       24.63       18.32       
H           42.57       21.18       16.48       
H           45.27       20.95       12.29       
H           43.55       19.1        15.74       
H           39.4        27.34       17.97       
H           43.2        27.1        14.87       
H           42.14       29.23       15.4        
H           45.52       24.6        11.92       
H           45.48       22.88       11.35       
H           44.20992    23.86793    10.93637    
H           39.42       25.43       19.0        
H           38.27739    24.48558    18.00227    
H           39.6        23.67       18.83       
C           41.8        28.35       15.87       
C           40.33       27.32       17.38       
C           40.86       28.48       16.85       
C           48.71       13.26       13.56       
S           48.96       14.73       12.63       
C           47.5        13.28       14.17       
C           46.76       14.45       13.85       
C           47.34       15.42       13.06       
N           45.54       14.93       14.27       
C           45.39       16.25       13.82       
C           46.57       16.58       13.14       
C           44.61       14.33       15.16       
H           43.82       14.99       15.49       
H           45.12       13.96       16.12       
H           44.18148    13.43783    14.70338    
H           43.67       17.38       14.71       
H           47.18       12.51       14.95       
C           44.47       17.38       14.04       
S           46.42       18.26       12.73       
C           44.95       18.53       13.56       
C           55.86       4.83        14.54       
C           54.56       4.92        14.99       
C           56.33       5.91        13.82       
C           55.59       7.03        13.65       
C           54.34       7.22        14.32       
C           53.83       6.12        14.97       
N           55.86       8.23        12.93       
C           54.88       9.19        13.16       
C           53.78       8.55        14.08       
O           54.84       10.31       12.71       
C           56.75       8.38        11.74       
C           52.62       9.17        14.47       
C           51.72       10.27       14.01       
C           50.64       10.39       14.92       
N           50.87       9.5         15.96       
C           52.04       8.75        15.86       
C           51.7        11.15       12.88       
O           52.5        8.04        16.76       
C           49.95       9.14        17.01       
H           52.81       6.05        15.31       
H           57.45       5.92        13.72       
H           54.08       4.09        15.45       
H           48.96       11.54       15.66       
H           52.6        11.16       12.21       
H           50.84       12.84       11.88       
H           57.56       9.13        11.95       
H           57.24       7.42        11.67       
H           56.21171    8.53582     10.80508    
H           49.43       10.04       17.21       
H           49.23978    8.37515     16.69586    
H           50.52       8.67        17.84       
C           50.73       12.14       12.72       
C           49.68       11.4        14.83       
C           49.77       12.27       13.7        
C           61.03       -0.8        15.93       
S           61.01       0.53        14.74       
C           59.94       -0.74       16.74       
C           59.0        0.22        16.33       
C           59.41       1.05        15.31       
N           57.74       0.68        16.8        
C           57.46       1.82        16.03       
C           58.44       2.05        15.11       
C           56.93       0.35        17.96       
H           55.94       0.73        17.85       
H           57.35       0.91        18.81       
H           57.08079    -0.70556    18.18619    
H           55.68       3.02        16.74       
H           59.74       -1.49       17.46       
C           56.48       2.85        16.01       
S           58.11       3.33        14.04       
C           56.62       3.62        14.95       
C           69.95       -7.44       17.91       
C           70.05       -6.33       17.1        
C           68.7        -7.63       18.64       
C           67.67       -6.76       18.34       
C           67.75       -5.61       17.52       
C           69.02       -5.41       16.9        
N           66.43       -6.79       18.91       
C           65.64       -5.77       18.52       
C           66.39       -4.97       17.54       
O           64.47       -5.62       18.96       
C           65.98       -7.8        19.9        
C           65.8        -3.85       16.89       
C           64.37       -3.38       16.68       
C           64.52       -2.17       15.96       
N           65.88       -1.84       15.57       
C           66.71       -2.81       16.1        
C           63.06       -3.78       16.93       
O           67.88       -2.82       15.9        
C           66.27       -0.99       14.48       
H           69.2        -4.63       16.19       
H           68.48       -8.4        19.4        
H           70.91       -6.17       16.55       
H           63.69       -0.3        15.31       
H           62.78       -4.67       17.35       
H           61.04       -3.19       17.02       
H           64.97       -8.14       19.67       
H           66.47       -8.8        19.73       
H           65.98       -7.37867    20.90528    
H           65.4        -0.87       13.77       
H           66.50254    0.03883     14.75482    
H           67.07       -1.5        13.89       
C           62.02       -2.87       16.69       
C           63.47       -1.3        15.66       
C           62.16       -1.64       16.03       
C           75.97       -11.67      20.17       
S           74.57       -11.14      21.06       
C           76.0        -11.15      18.92       
C           74.85       -10.45      18.59       
C           73.95       -10.45      19.67       
N           74.4        -9.73       17.51       
C           73.17       -9.26       17.9        
C           72.84       -9.76       19.14       
C           75.04       -9.56       16.19       
H           74.52       -8.81       15.62       
H           75.09       -10.6       15.71       
H           76.05326    -9.18181    16.32558    
H           72.23       -8.06       16.22       
H           76.87       -11.24      18.27       
C           72.17       -8.49       17.27       
S           71.22       -9.39       19.51       
C           71.05       -8.38       18.07       
C           84.08       -16.81      26.03       
C           83.18       -16.02      26.79       
C           84.1        -16.8       24.66       
C           83.07       -16.1       24.01       
C           81.99       -15.45      24.71       
C           82.08       -15.46      26.14       
N           82.81       -16.1       22.65       
C           81.69       -15.4       22.37       
C           81.11       -14.89      23.66       
O           81.34       -15.17      21.23       
C           83.45       -16.94      21.71       
C           79.89       -14.11      23.66       
C           78.89       -13.75      22.57       
C           78.02       -12.78      23.15       
N           78.3        -12.65      24.5        
C           79.44       -13.37      24.89       
C           78.72       -13.92      21.15       
O           79.88       -13.25      26.0        
C           77.61       -11.72      25.33       
H           81.32       -14.95      26.73       
H           84.81       -17.29      24.14       
H           83.33       -15.91      27.86       
H           76.55       -11.35      22.84       
H           79.21       -14.69      20.59       
H           77.76       -13.46      19.31       
H           82.73       -17.11      20.91       
H           83.69       -17.92      22.17       
H           84.32404    -16.4385    21.29447    
H           77.3        -10.76      24.89       
H           76.71105    -12.17296   25.74812    
H           78.29       -11.4       26.17       
C           77.77       -13.26      20.39       
C           77.18       -12.07      22.36       
C           76.99       -12.27      20.97       
C           90.46       -19.67      29.46       
S           90.26       -18.77      27.95       
C           89.23       -20.01      30.03       
C           88.15       -19.53      29.29       
C           88.55       -18.77      28.13       
N           86.77       -19.4       29.43       
C           86.28       -18.64      28.37       
C           87.37       -18.36      27.49       
C           85.92       -20.13      30.32       
H           84.85       -20.06      30.02       
H           86.21       -21.15      30.25       
H           86.07319    -19.76791   31.33663    
H           84.04       -18.43      28.51       
H           89.23       -20.62      30.99       
C           84.99       -18.24      27.96       
S           86.81       -17.43      26.17       
C           85.12       -17.52      26.75       
C           100.05      -24.94      31.65       
C           100.03      -23.83      30.76       
C           98.84       -25.2       32.29       
C           97.73       -24.38      32.16       
C           97.7        -23.32      31.19       
C           98.92       -23.03      30.45       
N           96.49       -24.52      32.8        
C           95.63       -23.65      32.28       
C           96.36       -22.69      31.28       
O           94.45       -23.53      32.68       
C           96.29       -25.08      34.15       
C           95.7        -21.72      30.63       
C           94.34       -21.11      30.63       
C           94.08       -20.55      29.36       
N           95.18       -20.68      28.58       
C           96.21       -21.27      29.3        
C           93.3        -21.03      31.55       
O           97.18       -21.62      28.63       
C           95.32       -20.1       27.25       
H           99.0        -22.36      29.66       
H           98.79       -26.11      32.87       
H           100.92      -23.66      30.18       
H           92.72       -19.73      27.95       
H           93.4        -21.47      32.54       
H           91.32       -20.42      31.95       
H           95.63       -24.42      34.76       
H           97.25       -25.14      34.66       
H           95.71584    -26.00583   34.18588    
H           94.43       -20.18      26.72       
H           95.76238    -19.10645   27.32252    
H           96.02       -20.84      26.77       
C           92.06       -20.51      31.16       
C           92.84       -20.03      28.89       
C           91.8        -20.06      29.85       
C           105.22      -30.47      33.27       
S           103.84      -29.87      34.18       
C           105.41      -29.81      32.1        
C           104.39      -28.87      31.88       
C           103.51      -28.76      32.92       
N           104.09      -27.94      30.92       
C           103.02      -27.25      31.39       
C           102.58      -27.77      32.56       
C           104.65      -27.77      29.58       
H           104.85      -28.76      29.21       
H           103.91      -27.31      28.94       
H           105.59613   -27.23339   29.50939    
H           102.23      -25.71      29.93       
H           106.26      -29.97      31.49       
C           102.14      -26.18      30.9        
S           101.14      -26.99      33.15       
C           101.16      -25.89      31.77       
C           110.54      -38.81      38.54       
C           110.02      -38.88      37.24       
C           110.52      -37.59      39.23       
C           109.96      -36.51      38.54       
C           109.6       -36.56      37.12       
C           109.61      -37.84      36.56       
N           109.88      -35.22      39.01       
C           109.25      -34.42      38.04       
C           108.94      -35.29      36.77       
O           108.92      -33.26      38.34       
C           110.22      -34.74      40.37       
C           108.32      -34.8       35.6        
C           107.57      -33.59      35.21       
C           107.18      -33.66      33.86       
N           107.52      -34.89      33.35       
C           108.18      -35.66      34.28       
C           107.15      -32.41      35.86       
O           108.68      -36.74      33.89       
C           107.54      -35.27      31.93       
H           109.33      -38.04      35.57       
H           111.03      -37.49      40.16       
H           109.97      -39.82      36.71       
H           106.19      -32.65      32.17       
H           107.21      -32.33      36.94       
H           105.91      -30.63      35.78       
H           110.15      -33.63      40.4        
H           111.31      -34.91      40.62       
H           109.54937   -35.11024   41.14542    
H           106.84      -34.66      31.37       
H           108.44372   -35.00584   31.38082    
H           107.35      -36.34      31.85       
C           106.36      -31.37      35.23       
C           106.51      -32.59      33.19       
C           106.05      -31.47      33.91       
C           111.21      -45.22      42.51       
S           111.38      -43.59      43.1        
C           111.52      -45.37      41.21       
C           111.7       -44.1       40.6        
C           111.58      -43.07      41.44       
N           111.78      -43.63      39.25       
C           111.65      -42.28      39.31       
C           111.47      -41.93      40.68       
C           111.92      -44.36      38.01       
H           112.33      -43.67      37.22       
H           111.01      -44.81      37.62       
H           112.63677   -45.14636   38.2466     
H           111.79      -41.08      37.36       
H           111.46      -46.29      40.62       
C           111.53      -41.15      38.42       
S           111.16      -40.16      40.88       
C           111.16      -40.02      39.13       
C           108.69      -53.57      49.66       
C           108.72      -53.81      48.23       
C           108.85      -52.27      50.06       
C           109.16      -51.28      49.19       
C           109.07      -51.38      47.79       
C           108.81      -52.72      47.35       
N           109.56      -49.98      49.56       
C           109.66      -49.24      48.46       
C           109.41      -50.03      47.19       
O           109.86      -48.03      48.52       
C           109.77      -49.45      50.89       
C           109.54      -49.55      45.89       
C           110.0       -48.22      45.27       
C           109.89      -48.34      43.91       
N           109.44      -49.62      43.57       
C           109.06      -50.37      44.69       
C           110.53      -46.98      45.69       
O           108.57      -51.51      44.61       
C           109.56      -50.13      42.26       
H           109.0       -52.95      46.37       
H           108.82      -52.06      51.15       
H           108.57      -54.79      47.8        
H           110.15      -47.54      41.99       
H           110.7       -46.85      46.77       
H           111.59      -45.15      45.1        
H           108.9       -49.65      51.52       
H           110.06      -48.37      50.88       
H           110.66213   -49.91045   51.31448    
H           110.55      -49.91      41.87       
H           108.81406   -49.79093   41.54118    
H           109.54      -51.21      42.37       
C           110.94      -45.99      44.81       
C           110.24      -47.39      43.03       
C           110.73      -46.19      43.45       
C           106.71      -59.93      53.66       
S           107.05      -59.63      51.97       
C           106.86      -58.8       54.42       
C           107.22      -57.69      53.61       
C           107.37      -57.98      52.25       
N           107.41      -56.32      53.81       
C           107.85      -55.87      52.51       
C           107.73      -56.85      51.57       
C           107.29      -55.43      54.96       
H           107.08      -54.43      54.61       
H           108.21      -55.25      55.46       
H           106.49343   -55.76837   55.62263    
H           108.22      -53.59      52.45       
H           106.59      -58.64      55.43       
C           108.21      -54.6       51.95       
S           108.06      -56.22      49.96       
C           108.44      -54.67      50.62       
C           103.01      -70.18      56.22       
C           104.25      -69.69      56.56       
C           102.11      -69.3       55.66       
C           102.55      -68.04      55.38       
C           103.78      -67.46      55.78       
C           104.63      -68.34      56.41       
N           101.85      -67.07      54.68       
C           102.55      -65.85      54.54       
C           103.86      -66.07      55.32       
O           102.08      -64.88      54.01       
C           100.41      -67.34      54.56       
C           104.73      -65.03      55.57       
C           104.95      -63.71      54.87       
C           105.9       -63.07      55.67       
N           106.28      -63.76      56.83       
C           105.7       -65.04      56.78       
C           104.59      -63.1       53.65       
O           105.82      -65.7       57.74       
C           106.75      -63.09      58.06       
H           105.6       -67.92      56.87       
H           101.14      -69.64      55.42       
H           104.97      -70.27      57.25       
H           107.13      -61.39      55.89       
H           103.89      -63.57      52.95       
H           105.03      -61.52      52.27       
H           100.38      -68.3       54.05       
H           99.93       -67.37      55.45       
H           99.81158    -66.59198   54.03995    
H           106.34      -63.61      58.94       
H           107.82862   -62.97179   58.16343    
H           106.28      -62.12      58.08       
C           105.14      -61.85      53.3        
C           106.43      -61.84      55.27       
C           106.14      -61.26      54.06       
C           99.99       -76.94      58.57       
S           99.21       -75.43      58.19       
C           101.37      -76.87      58.39       
C           101.78      -75.6       58.05       
C           100.76      -74.67      57.82       
N           103.07      -74.93      57.83       
C           102.74      -73.61      57.43       
C           101.33      -73.49      57.33       
C           104.41      -75.48      58.02       
H           105.14      -74.79      57.64       
H           104.61      -76.41      57.37       
H           104.48765   -75.7553    59.0718     
H           104.58      -72.45      57.11       
H           101.98      -77.76      58.63       
C           103.5       -72.55      57.05       
S           100.95      -71.93      56.71       
C           102.64      -71.53      56.65       
C           94.07       -86.36      59.42       
C           93.75       -85.42      58.43       
C           94.86       -85.95      60.51       
C           95.32       -84.63      60.55       
C           95.09       -83.7       59.52       
C           94.29       -84.14      58.41       
N           96.21       -84.09      61.49       
C           96.36       -82.72      61.25       
C           95.82       -82.47      59.85       
O           97.17       -82.14      61.97       
C           97.05       -84.78      62.36       
C           96.2        -81.4       59.08       
C           97.26       -80.32      59.22       
C           97.13       -79.39      58.13       
N           95.98       -79.8       57.37       
C           95.27       -80.87      57.97       
C           98.44       -80.12      60.05       
O           94.16       -81.23      57.59       
C           95.41       -79.03      56.33       
H           94.11       -83.52      57.6        
H           95.19       -86.65      61.26       
H           93.16       -85.72      57.63       
H           97.88       -77.62      57.15       
H           98.6        -80.9       60.8        
H           100.23      -78.99      60.39       
H           97.22       -84.15      63.25       
H           96.78       -85.72      62.77       
H           98.00554    -84.97111   61.87161    
H           94.97       -79.68      55.59       
H           94.80299    -78.16284   56.59015    
H           96.25       -78.64      55.75       
C           99.33       -79.05      59.81       
C           98.02       -78.3       57.94       
C           99.09       -78.09      58.87       
C           93.83       -94.17      59.99       
S           93.84       -92.96      61.26       
C           93.84       -93.65      58.71       
C           93.65       -92.24      58.76       
C           93.73       -91.69      60.02       
N           93.53       -91.22      57.8        
C           93.69       -89.99      58.47       
C           93.71       -90.29      59.85       
C           93.71       -91.4       56.36       
H           93.46       -90.47      55.85       
H           93.05       -92.17      55.93       
H           94.6949     -91.77192   56.07762    
H           93.76       -88.17      57.13       
H           93.95       -94.26      57.88       
C           93.79       -88.56      58.18       
S           93.71       -88.79      60.77       
C           93.8        -87.8       59.31       
H           34.86       47.57       16.14       
H           93.62       -95.25      60.18       
