512

C           39.5        40.14       15.61       
C           39.46       41.24       16.39       
C           39.13       40.36       14.27       
C           38.63       41.58       13.86       
C           38.59       42.74       14.65       
C           38.93       42.5        15.96       
N           38.35       41.94       12.55       
C           38.2        43.3        12.37       
C           38.27       43.87       13.78       
O           37.81       43.82       11.3        
C           37.92       41.04       11.53       
C           37.93       45.21       14.06       
C           37.94       46.45       13.18       
C           37.6        47.47       14.06       
N           37.22       46.99       15.37       
C           37.34       45.68       15.42       
C           38.13       46.85       11.78       
O           37.1        45.13       16.49       
C           36.34       47.75       16.24       
H           38.86       43.3        16.66       
H           39.11       39.53       13.61       
H           39.96       41.12       17.31       
H           37.23       49.57       14.45       
H           38.51       46.17       11.02       
H           38.11       48.5        10.36       
H           37.99       39.98       11.76       
H           36.9        41.4        11.17       
H           38.53364    41.09708    10.63095    
H           35.9        48.61       15.73       
H           36.86178    48.02499    17.15664    
H           35.51       47.09       16.55       
C           38.04       48.19       11.42       
C           37.53       48.82       13.7        
C           37.77       49.21       12.38       
C           41.49       32.88       17.4        
S           41.38       33.66       15.8        
C           41.37       33.76       18.36       
C           41.0        35.03       17.87       
C           40.98       35.21       16.52       
N           40.76       36.23       18.47       
C           40.42       37.13       17.46       
C           40.56       36.46       16.23       
C           40.87       36.56       19.87       
H           40.52       37.6        19.97       
H           41.93       36.47       20.29       
H           40.37543    35.84253    20.52478    
H           40.07       39.25       18.11       
H           41.47       33.62       19.39       
C           40.12       38.51       17.31       
S           40.03       37.55       14.96       
C           39.97       38.86       16.05       
C           45.62       22.57       18.22       
C           45.47       23.48       19.33       
C           45.14       22.96       16.96       
C           44.5        24.19       16.84       
C           44.32       25.12       17.93       
C           44.85       24.71       19.18       
N           43.94       24.75       15.73       
C           43.49       26.0        16.05       
C           43.65       26.31       17.51       
O           42.82       26.61       15.22       
C           43.92       24.21       14.37       
C           43.12       27.4        18.14       
C           42.77       28.76       17.66       
C           42.38       29.51       18.81       
N           42.53       28.76       20.02       
C           42.92       27.49       19.69       
C           42.73       29.39       16.43       
O           43.01       26.57       20.58       
C           42.52       29.22       21.36       
H           44.92       25.4        20.04       
H           45.31       22.28       16.15       
H           45.88       23.15       20.28       
H           41.66       31.32       19.65       
H           42.97       28.87       15.56       
H           42.23       31.13       15.34       
H           44.4        23.28       14.26       
H           42.89       23.93       14.16       
H           44.47505    24.88759    13.72124    
H           42.53       30.31       21.39       
H           41.65121    28.85977    21.91094    
H           43.4        28.86       21.84       
C           42.28       30.68       16.33       
C           41.93       30.82       18.72       
C           41.89       31.45       17.47       
C           48.79       15.5        17.49       
S           48.92       16.89       16.47       
C           48.17       15.74       18.68       
C           47.67       17.09       18.69       
C           47.94       17.86       17.52       
N           46.86       17.85       19.6        
C           46.67       19.11       18.97       
C           47.31       19.06       17.72       
C           46.27       17.39       20.87       
H           45.25       17.82       20.95       
H           46.76       17.79       21.74       
H           46.15366    16.30662    20.89908    
H           45.24       20.44       20.15       
H           48.01       15.0        19.47       
C           45.94       20.29       19.34       
S           47.05       20.59       16.99       
C           46.18       21.25       18.37       
C           54.84       6.24        15.46       
C           53.49       6.24        15.9        
C           55.5        7.46        15.68       
C           54.76       8.63        15.98       
C           53.36       8.67        16.23       
C           52.77       7.42        16.17       
N           55.27       9.98        16.08       
C           54.28       10.86       16.25       
C           52.97       10.06       16.45       
O           54.47       12.1        16.41       
C           56.49       10.32       15.41       
C           51.76       10.61       16.96       
C           51.24       11.98       16.91       
C           49.96       11.92       17.55       
N           49.74       10.66       18.11       
C           50.79       9.79        17.83       
C           51.61       13.23       16.41       
O           50.9        8.7         18.25       
C           49.07       10.47       19.33       
H           51.68       7.37        16.41       
H           56.59       7.43        15.5        
H           52.93       5.3         16.1        
H           48.2        13.01       18.13       
H           52.55       13.43       15.87       
H           51.19       15.28       16.22       
H           57.01       11.08       15.97       
H           57.14       9.49        15.31       
H           56.38144    10.7253     14.40399    
H           48.78       9.42        19.41       
H           49.52997    10.8309     20.24994    
H           48.07       10.86       19.27       
C           50.78       14.35       16.48       
C           49.14       13.06       17.64       
C           49.56       14.29       17.14       
C           59.99       0.59        13.91       
S           59.8        2.18        13.22       
C           58.9        0.18        14.64       
C           57.94       1.28        14.81       
C           58.35       2.45        14.14       
N           56.76       1.49        15.51       
C           56.42       2.81        15.27       
C           57.46       3.43        14.51       
C           55.98       0.51        16.21       
H           55.47       0.91        17.08       
H           56.63       -0.34       16.58       
H           55.26797    0.02833     15.53985    
H           54.49       3.51        16.31       
H           58.78       -0.81       15.08       
C           55.37       3.72        15.65       
S           57.02       5.07        14.25       
C           55.53       4.98        15.19       
C           70.59       -3.0        15.18       
C           70.26       -1.96       14.39       
C           69.51       -3.67       15.75       
C           68.17       -3.29       15.42       
C           67.84       -2.23       14.48       
C           68.96       -1.52       14.02       
N           67.05       -3.86       15.93       
C           65.88       -3.41       15.34       
C           66.33       -2.23       14.44       
O           64.8        -3.82       15.73       
C           67.07       -4.93       16.95       
C           65.4        -1.38       13.77       
C           63.9        -1.28       13.75       
C           63.58       -0.22       12.84       
N           64.74       0.27        12.16       
C           65.84       -0.47       12.61       
C           62.82       -1.74       14.65       
O           66.88       -0.34       12.05       
C           64.85       1.41        11.25       
H           68.89       -0.66       13.43       
H           69.68       -4.56       16.34       
H           71.08       -1.28       14.03       
H           61.97       1.1         12.15       
H           62.93       -2.53       15.41       
H           60.81       -1.59       15.2        
H           68.01       -4.86       17.55       
H           66.31       -4.83       17.7        
H           67.08373    -5.89789    16.4489     
H           64.23       1.24        10.41       
H           64.48049    2.3551      11.64794    
H           65.92       1.55        10.89       
C           61.58       -1.19       14.55       
C           62.27       0.25        12.78       
C           61.22       -0.16       13.67       
C           76.77       -7.62       16.0        
S           75.08       -7.72       16.57       
C           77.01       -6.5        15.33       
C           75.82       -5.65       15.27       
C           74.78       -6.16       16.01       
N           75.46       -4.4        14.64       
C           74.15       -4.17       15.0        
C           73.78       -5.22       15.88       
C           76.44       -3.49       14.0        
H           75.85       -2.86       13.37       
H           77.13       -3.82       13.24       
H           76.949      -2.99514    14.82712    
H           73.3        -2.32       14.02       
H           77.94       -6.2        14.96       
C           73.16       -3.19       14.67       
S           72.14       -5.02       16.32       
C           71.97       -3.53       15.32       
C           83.85       -15.48      19.79       
C           82.45       -15.72      19.86       
C           84.26       -14.35      19.08       
C           83.38       -13.58      18.36       
C           81.97       -13.73      18.42       
C           81.55       -14.85      19.29       
N           83.67       -12.44      17.68       
C           82.52       -11.76      17.24       
C           81.35       -12.62      17.63       
O           82.57       -10.79      16.71       
C           84.96       -11.92      17.37       
C           80.06       -12.14      17.38       
C           79.48       -10.86      16.9        
C           78.06       -10.99      16.98       
N           77.7        -12.22      17.56       
C           78.85       -13.01      17.72       
C           79.95       -9.55       16.46       
O           78.79       -14.23      17.99       
C           76.3        -12.78      17.53       
H           80.51       -15.04      19.47       
H           85.32       -14.12      18.89       
H           82.11       -16.42      20.58       
H           76.1        -10.05      16.7        
H           80.98       -9.33       16.48       
H           79.57       -7.57       16.11       
H           85.01       -11.38      16.39       
H           85.72       -12.74      17.32       
H           85.25772    -11.21115   18.14265    
H           75.57       -12.17      18.08       
H           75.8637     -12.70728   16.53378    
H           76.35       -13.81      17.88       
C           79.07       -8.54       16.22       
C           77.2        -10.01      16.63       
C           77.71       -8.74       16.23       
C           89.44       -18.74      24.11       
S           89.51       -17.38      22.98       
C           88.18       -19.34      24.09       
C           87.29       -18.56      23.31       
C           87.8        -17.48      22.66       
N           85.92       -18.71      23.03       
C           85.67       -17.67      22.09       
C           86.86       -16.91      21.84       
C           84.94       -19.47      23.71       
H           84.17       -19.88      22.89       
H           85.4        -20.28      24.27       
H           84.45313    -18.80483   24.42317    
H           83.54       -17.73      21.45       
H           88.0        -20.24      24.71       
C           84.54       -17.23      21.42       
S           86.55       -15.72      20.67       
C           84.79       -16.22      20.55       
C           98.34       -21.99      30.09       
C           98.53       -21.15      28.99       
C           97.03       -22.42      30.37       
C           96.06       -21.82      29.59       
C           96.17       -21.07      28.37       
C           97.49       -20.77      28.12       
N           94.7        -22.09      29.84       
C           93.92       -21.46      28.86       
C           94.82       -20.85      27.81       
O           92.75       -21.58      28.95       
C           94.11       -22.96      30.88       
C           94.28       -20.33      26.65       
C           92.89       -19.99      26.19       
C           92.96       -19.56      24.85       
N           94.3        -19.5       24.43       
C           95.13       -19.84      25.52       
C           91.63       -19.84      26.89       
O           96.35       -19.91      25.38       
C           94.78       -19.05      23.17       
H           97.74       -20.1       27.34       
H           96.82       -22.94      31.28       
H           99.5        -20.75      28.69       
H           91.94       -18.87      23.08       
H           91.54       -20.07      27.91       
H           89.51       -19.56      26.61       
H           93.1        -22.71      31.02       
H           94.59       -22.87      31.89       
H           94.06565    -23.95795   30.44386    
H           94.03       -19.2       22.41       
H           94.96768    -17.97952   23.08659    
H           95.69       -19.54      22.88       
C           90.49       -19.62      26.15       
C           91.89       -19.1       24.12       
C           90.64       -19.2       24.79       
C           103.47      -24.95      35.23       
S           101.89      -25.54      34.63       
C           103.79      -23.8       34.61       
C           102.77      -23.41      33.7        
C           101.67      -24.17      33.61       
N           102.57      -22.35      32.8        
C           101.39      -22.49      32.19       
C           100.75      -23.62      32.68       
C           103.68      -21.48      32.44       
H           103.31      -20.44      32.32       
H           104.44      -21.42      33.22       
H           104.14445   -21.86585   31.53253    
H           100.98      -20.99      30.49       
H           104.76      -23.36      34.83       
C           100.68      -21.76      31.17       
S           99.28       -23.85      31.89       
C           99.49       -22.37      30.97       
C           109.11      -33.12      40.29       
C           109.8       -32.0       39.84       
C           107.73      -33.17      40.17       
C           107.07      -32.06      39.63       
C           107.7       -30.92      39.14       
C           109.09      -30.86      39.32       
N           105.71      -32.05      39.29       
C           105.34      -30.84      38.72       
C           106.68      -30.02      38.55       
O           104.28      -30.73      38.18       
C           104.9       -33.18      39.04       
C           106.71      -28.83      37.78       
C           105.63      -27.87      37.33       
C           106.26      -26.92      36.49       
N           107.66      -27.15      36.38       
C           108.02      -28.26      37.14       
C           104.27      -27.8       37.6        
O           109.13      -28.61      37.35       
C           108.58      -26.49      35.46       
H           109.63      -29.91      39.1        
H           107.23      -34.01      40.67       
H           110.87      -31.98      39.97       
H           106.01      -25.19      35.1        
H           103.81      -28.52      38.27       
H           102.53      -26.79      37.0        
H           103.91      -32.99      39.19       
H           105.09      -33.81      39.94       
H           105.06879   -33.61605   38.05538    
H           109.45      -26.11      35.97       
H           108.85414   -27.09451   34.59541    
H           108.04      -25.61      35.14       
C           103.56      -26.8       36.95       
C           105.55      -25.9       35.82       
C           104.2       -25.82      36.08       
C           111.01      -39.32      44.45       
S           110.13      -37.88      44.86       
C           111.66      -39.17      43.24       
C           111.47      -37.88      42.73       
C           110.51      -37.12      43.41       
N           111.85      -37.24      41.56       
C           111.07      -36.1       41.52       
C           110.21      -35.98      42.62       
C           112.38      -37.97      40.34       
H           112.36      -37.2       39.6        
H           111.69      -38.73      40.1        
H           113.38434   -38.37453   40.46554    
H           111.24      -35.08      39.48       
H           112.0       -39.99      42.6        
C           110.8       -35.08      40.49       
S           109.23      -34.51      42.54       
C           109.84      -34.17      40.94       
C           110.46      -48.99      49.92       
C           110.41      -48.97      48.52       
C           110.63      -47.85      50.65       
C           110.82      -46.68      49.89       
C           110.82      -46.62      48.46       
C           110.63      -47.86      47.77       
N           111.02      -45.43      50.46       
C           111.02      -44.48      49.48       
C           111.05      -45.14      48.17       
O           111.23      -43.35      49.85       
C           110.8       -45.08      51.81       
C           111.08      -44.41      47.0        
C           110.97      -42.96      46.66       
C           111.23      -42.94      45.29       
N           111.55      -44.17      44.77       
C           111.56      -45.13      45.72       
C           110.78      -41.82      47.3        
O           111.88      -46.27      45.51       
C           112.26      -44.29      43.5        
H           110.61      -47.97      46.72       
H           110.51      -47.96      51.73       
H           110.31      -49.97      48.05       
H           111.23      -41.69      43.58       
H           110.66      -41.77      48.31       
H           110.86      -39.66      47.12       
H           110.09      -45.81      52.16       
H           110.39      -44.06      51.92       
H           111.76627   -44.97829   52.30403    
H           112.76      -43.41      43.15       
H           111.61662   -44.5402    42.65646    
H           113.04      -45.05      43.7        
C           110.85      -40.61      46.63       
C           111.12      -41.73      44.61       
C           110.95      -40.58      45.24       
C           109.09      -56.17      52.6        
S           108.8       -55.45      51.04       
C           109.63      -55.29      53.51       
C           109.93      -54.05      52.91       
C           109.5       -53.97      51.6        
N           110.43      -52.85      53.31       
C           110.35      -51.96      52.23       
C           109.75      -52.63      51.18       
C           111.2       -52.63      54.52       
H           111.17      -51.63      54.79       
H           112.29      -53.02      54.49       
H           110.83063   -53.15967   55.39813    
H           111.18      -49.89      52.59       
H           109.89      -55.6       54.52       
C           110.73      -50.64      51.9        
S           109.58      -51.56      49.81       
C           110.35      -50.26      50.61       
C           105.06      -66.3       55.04       
C           105.8       -65.63      55.99       
C           104.71      -65.67      53.82       
C           105.41      -64.53      53.46       
C           106.18      -63.76      54.43       
C           106.29      -64.34      55.67       
N           105.25      -63.69      52.34       
C           106.03      -62.58      52.34       
C           106.69      -62.5       53.77       
O           106.07      -61.84      51.39       
C           104.34      -63.89      51.17       
C           107.56      -61.43      54.17       
C           107.83      -60.14      53.52       
C           108.76      -59.43      54.32       
N           109.06      -60.15      55.44       
C           108.36      -61.34      55.46       
C           107.43      -59.47      52.35       
O           108.55      -62.21      56.22       
C           110.21      -59.92      56.37       
H           106.74      -63.78      56.48       
H           104.2       -66.32      53.09       
H           105.88      -65.99      57.06       
H           109.78      -57.66      54.77       
H           106.83      -59.85      51.55       
H           107.68      -57.81      51.14       
H           104.83      -63.63      50.21       
H           103.99      -64.9       51.06       
H           103.4398    -63.28987   51.30259    
H           110.07      -60.53      57.26       
H           111.16448   -59.92      55.84363    
H           110.06      -58.94      56.78       
C           107.94      -58.17      52.07       
C           109.15      -58.13      54.04       
C           108.72      -57.5       52.91       
C           102.51      -73.52      54.77       
S           101.84      -72.04      54.06       
C           103.52      -73.29      55.67       
C           103.67      -71.93      55.86       
C           102.93      -71.08      55.01       
N           104.44      -71.02      56.67       
C           104.39      -69.78      56.08       
C           103.4       -69.78      55.09       
C           105.31      -71.36      57.81       
H           105.82      -70.48      58.28       
H           106.17      -71.98      57.51       
H           104.73988   -71.82322   58.61529    
H           105.96      -68.37      56.93       
H           104.2       -74.04      56.18       
C           105.1       -68.58      56.27       
S           103.24      -68.2       54.43       
C           104.57      -67.64      55.35       
C           97.28       -82.35      50.53       
C           97.08       -81.0       50.29       
C           98.33       -82.64      51.39       
C           99.22       -81.63      51.84       
C           99.02       -80.29      51.45       
C           97.92       -80.0       50.67       
N           100.31      -81.78      52.72       
C           100.73      -80.47      52.94       
C           100.05      -79.48      52.04       
O           101.74      -80.22      53.6        
C           100.4       -82.88      53.64       
C           100.5       -78.16      51.95       
C           101.13      -77.17      52.88       
C           101.26      -75.94      52.19       
N           100.75      -76.07      50.88       
C           100.34      -77.38      50.64       
C           101.34      -77.11      54.28       
O           99.96       -77.75      49.52       
C           100.58      -74.94      49.9        
H           97.74       -78.96      50.49       
H           98.53       -83.65      51.65       
H           96.17       -80.71      49.64       
H           101.91      -73.88      52.25       
H           101.08      -77.9       54.95       
H           101.99      -75.99      55.86       
H           99.97       -83.74      53.2        
H           101.44      -83.14      53.88       
H           99.87503    -82.67278   54.57251    
H           100.37      -75.31      48.88       
H           99.77122    -74.24676   50.13108    
H           101.54      -74.44      49.88       
C           101.78      -75.94      54.82       
C           101.69      -74.75      52.81       
C           101.98      -74.74      54.15       
C           93.28       -88.57      48.27       
S           94.81       -88.37      49.14       
C           92.66       -87.35      48.05       
C           93.43       -86.26      48.49       
C           94.7        -86.66      48.94       
N           93.36       -84.87      48.68       
C           94.61       -84.46      49.07       
C           95.39       -85.52      49.42       
C           92.24       -83.98      48.28       
H           92.62       -82.95      48.17       
H           91.37       -84.14      48.97       
H           91.96003    -84.24562   47.26061    
H           94.83       -82.21      49.2        
H           91.72       -87.27      47.57       
C           95.2        -83.19      49.47       
S           96.84       -84.99      50.22       
C           96.37       -83.35      50.08       
H           38.26       50.2        12.21       
H           92.8        -89.54      48.14       
