512

C           41.58       0.81        11.84       
C           41.6        2.08        12.35       
C           40.93       0.68        10.62       
C           40.37       1.77        9.96        
C           40.46       3.07        10.51       
C           41.12       3.19        11.72       
N           39.66       1.72        8.75        
C           39.31       3.03        8.4         
C           39.78       4.01        9.54        
O           38.6        3.32        7.42        
C           39.52       0.63        7.78        
C           39.35       5.29        9.7         
C           38.99       6.39        8.75        
C           38.46       7.47        9.45        
N           38.6        7.21        10.82       
C           39.19       5.91        11.06       
C           39.04       6.48        7.37        
O           39.29       5.4         12.19       
C           37.76       7.7         11.9        
H           41.11       4.19        12.18       
H           40.84       -0.25       10.18       
H           42.15       2.24        13.27       
H           37.16       9.12        9.53        
H           39.52       5.75        6.72        
H           38.19       7.5         5.71        
H           39.7        -0.32       8.25        
H           38.55       0.54        7.37        
H           40.18403    0.80513     6.93354     
H           36.8        8.04        11.59       
H           38.25169    8.42308     12.55077    
H           37.53       6.83        12.51       
C           38.31       7.53        6.79        
C           37.72       8.49        8.92        
C           37.61       8.5         7.52        
C           44.03       -6.3        13.82       
S           43.44       -5.64       12.37       
C           44.13       -5.34       14.81       
C           43.57       -4.14       14.4        
C           43.25       -4.07       13.06       
N           43.4        -2.83       14.92       
C           42.91       -1.99       13.93       
C           42.79       -2.75       12.75       
C           43.36       -2.47       16.29       
H           42.7        -1.58       16.4        
H           44.34       -2.18       16.71       
H           42.80831    -3.19852    16.88413    
H           42.47       0.06        14.54       
H           44.64       -5.53       15.78       
C           42.42       -0.69       13.75       
S           42.19       -1.79       11.43       
C           42.16       -0.36       12.43       
C           46.66       -17.12      15.35       
C           46.65       -16.16      16.36       
C           46.52       -16.67      14.02       
C           46.29       -15.3       13.81       
C           46.11       -14.37      14.83       
C           46.29       -14.91      16.11       
N           46.13       -14.68      12.61       
C           46.04       -13.3       12.8        
C           45.72       -13.04      14.27       
O           46.03       -12.6       11.8        
C           46.1        -15.29      11.36       
C           45.41       -11.81      14.8        
C           45.18       -10.47      14.18       
C           44.76       -9.65       15.33       
N           44.71       -10.36      16.55       
C           45.04       -11.67      16.29       
C           45.18       -9.84       12.94       
O           44.91       -12.52      17.15       
C           44.33       -9.91       17.89       
H           46.23       -14.19      16.88       
H           46.57       -17.43      13.21       
H           46.69       -16.49      17.46       
H           44.23       -7.69       16.12       
H           45.57       -10.33      12.09       
H           44.76       -7.99       11.85       
H           45.89       -16.33      11.55       
H           45.18       -14.96      10.84       
H           46.99497    -15.09112   10.77045    
H           43.65       -10.68      18.32       
H           45.18097    -9.65324    18.52089    
H           43.7        -9.07       17.84       
C           44.77       -8.44       12.83       
C           44.42       -8.29       15.2        
C           44.33       -7.7        13.93       
C           48.85       -24.63      16.08       
S           49.19       -23.47      14.81       
C           48.1        -24.14      17.08       
C           47.72       -22.78      16.76       
C           48.16       -22.26      15.55       
N           46.99       -21.79      17.45       
C           47.03       -20.58      16.68       
C           47.71       -20.88      15.48       
C           46.62       -21.84      18.8        
H           46.25       -20.94      19.15       
H           47.51       -22.1       19.32       
H           45.90267    -22.63703   18.99564    
H           45.98       -18.76      17.57       
H           47.86       -24.75      18.01       
C           46.58       -19.19      16.8        
S           47.66       -19.51      14.46       
C           47.0        -18.54      15.66       
C           56.22       -32.9       16.46       
C           54.83       -33.05      16.47       
C           56.73       -31.61      16.38       
C           55.8        -30.54      16.49       
C           54.42       -30.71      16.54       
C           53.95       -32.04      16.49       
N           56.11       -29.16      16.5        
C           55.0        -28.43      16.75       
C           53.83       -29.35      16.68       
O           55.1        -27.28      17.27       
C           57.42       -28.68      16.28       
C           52.53       -28.98      16.92       
C           51.84       -27.75      16.69       
C           50.47       -27.91      17.14       
N           50.24       -29.2       17.64       
C           51.43       -29.87      17.53       
C           52.16       -26.58      16.02       
O           51.53       -30.98      18.01       
C           49.02       -29.79      18.14       
H           52.88       -32.26      16.51       
H           57.76       -31.48      16.37       
H           54.46       -34.05      16.38       
H           48.49       -27.06      17.29       
H           53.17       -26.4       15.65       
H           51.59       -24.57      15.58       
H           57.99       -28.55      17.13       
H           57.89       -29.45      15.62       
H           57.43391    -27.76888   15.68186    
H           48.71       -30.8       17.68       
H           49.00548    -29.83356   19.22903    
H           48.22       -29.11      17.77       
C           51.25       -25.51      16.04       
C           49.51       -26.92      16.93       
C           49.86       -25.72      16.36       
C           61.76       -38.43      15.88       
S           61.98       -36.7       16.04       
C           60.42       -38.76      15.82       
C           59.6        -37.6       15.95       
C           60.27       -36.44      16.17       
N           58.21       -37.46      16.02       
C           58.01       -36.11      16.19       
C           59.24       -35.52      16.24       
C           57.23       -38.48      16.33       
H           56.21       -38.01      16.17       
H           57.39       -38.55      17.43       
H           57.34965    -39.3879    15.73881    
H           55.77       -35.59      16.08       
H           60.1        -39.81      15.68       
C           56.85       -35.33      16.27       
S           58.88       -33.81      16.3        
C           57.17       -34.01      16.32       
C           70.51       -45.4       16.13       
C           70.69       -44.22      16.75       
C           69.43       -45.69      15.29       
C           68.38       -44.8       15.26       
C           68.47       -43.51      15.88       
C           69.56       -43.33      16.7        
N           67.28       -44.86      14.47       
C           66.45       -43.78      14.66       
C           67.18       -42.83      15.57       
O           65.34       -43.83      14.16       
C           66.93       -45.95      13.55       
C           66.61       -41.59      15.88       
C           65.22       -40.94      15.74       
C           65.39       -39.63      16.11       
N           66.68       -39.4       16.53       
C           67.46       -40.47      16.42       
C           63.95       -41.39      15.37       
O           68.6        -40.42      16.71       
C           67.22       -38.13      17.05       
H           69.61       -42.39      17.22       
H           69.47       -46.64      14.83       
H           71.54       -43.83      17.26       
H           64.44       -37.78      16.39       
H           63.77       -42.42      15.05       
H           61.96       -40.78      14.73       
H           67.77       -46.7       13.69       
H           66.06       -46.45      13.83       
H           66.85359    -45.59576   12.522      
H           67.01       -37.35      16.34       
H           66.72701    -37.89422   17.99312    
H           68.24       -38.34      17.23       
C           62.87       -40.49      15.24       
C           64.3        -38.76      16.03       
C           62.97       -39.24      15.73       
C           75.66       -51.35      16.75       
S           73.94       -51.4       16.84       
C           76.11       -50.1       16.8        
C           75.07       -49.18      16.7        
C           73.76       -49.71      16.65       
N           75.03       -47.84      16.62       
C           73.71       -47.46      16.52       
C           72.9        -48.65      16.55       
C           76.11       -46.86      16.71       
H           75.62       -45.93      16.75       
H           76.76       -46.88      15.83       
H           76.6618     -46.93987   17.64661    
H           73.48       -45.3       16.3        
H           77.16       -49.94      16.97       
C           72.99       -46.26      16.28       
S           71.27       -48.11      16.33       
C           71.62       -46.37      16.22       
C           82.3        -59.96      20.39       
C           80.95       -59.84      20.59       
C           82.86       -59.03      19.47       
C           82.01       -58.0       18.96       
C           80.64       -57.85      19.22       
C           80.11       -58.91      19.96       
N           82.36       -56.93      18.1        
C           81.33       -56.09      17.86       
C           80.1        -56.63      18.54       
O           81.48       -54.99      17.36       
C           83.71       -56.63      17.62       
C           78.9        -55.88      18.62       
C           78.34       -54.65      17.98       
C           76.98       -54.44      18.51       
N           76.68       -55.43      19.39       
C           77.75       -56.3       19.58       
C           78.71       -53.68      16.94       
O           77.71       -57.21      20.42       
C           75.53       -55.48      20.19       
H           79.06       -59.03      20.05       
H           83.88       -58.96      19.14       
H           80.44       -60.56      21.21       
H           75.23       -53.22      18.54       
H           79.73       -53.67      16.64       
H           78.19       -51.96      15.84       
H           83.67       -56.18      16.62       
H           84.21       -57.63      17.63       
H           84.16329    -55.91868   18.3104     
H           75.17       -54.44      20.36       
H           74.75434    -56.08487   19.72034    
H           75.78       -55.84      21.21       
C           77.83       -52.67      16.51       
C           76.18       -53.37      18.11       
C           76.58       -52.51      17.06       
C           87.4        -64.08      24.51       
S           87.6        -62.64      23.51       
C           86.09       -64.49      24.54       
C           85.29       -63.67      23.73       
C           85.92       -62.59      23.1        
N           83.97       -63.66      23.49       
C           83.74       -62.55      22.6        
C           84.96       -61.96      22.31       
C           82.93       -64.48      24.14       
H           82.2        -64.42      23.43       
H           83.14       -65.53      24.36       
H           82.55729    -63.97575   25.03158    
H           81.65       -62.27      22.09       
H           85.78       -65.43      24.99       
C           82.67       -61.93      21.96       
S           84.86       -60.62      21.23       
C           83.11       -60.9       21.11       
C           96.46       -68.82      29.15       
C           96.61       -68.01      27.98       
C           95.18       -69.1       29.66       
C           94.08       -68.46      28.98       
C           94.18       -67.63      27.83       
C           95.47       -67.44      27.31       
N           92.74       -68.65      29.27       
C           91.94       -67.98      28.37       
C           92.76       -67.3       27.33       
O           90.78       -68.09      28.58       
C           92.11       -69.37      30.37       
C           92.25       -66.48      26.35       
C           90.85       -66.12      25.95       
C           90.91       -65.09      24.94       
N           92.21       -64.95      24.51       
C           93.05       -65.62      25.35       
C           89.57       -66.51      26.32       
O           94.25       -65.58      25.13       
C           92.61       -64.4       23.21       
H           95.66       -66.83      26.5        
H           94.93       -69.78      30.44       
H           97.56       -67.89      27.53       
H           89.82       -63.75      23.67       
H           89.47       -67.29      27.01       
H           87.53       -66.05      26.34       
H           91.27       -68.81      30.69       
H           92.74       -69.39      31.25       
H           91.86846    -70.39826   30.10086    
H           91.85       -64.68      22.44       
H           92.60288    -63.31116   23.25982    
H           93.62       -64.85      22.96       
C           88.5        -65.83      25.87       
C           89.76       -64.45      24.42       
C           88.54       -64.79      24.97       
C           102.18      -72.89      32.28       
S           100.46      -72.87      32.72       
C           102.6       -71.87      31.44       
C           101.49      -71.17      30.95       
C           100.26      -71.57      31.54       
N           101.26      -70.15      30.04       
C           99.89       -70.02      30.02       
C           99.26       -70.79      30.97       
C           102.22      -69.49      29.12       
H           102.96      -70.24      28.79       
H           101.73      -68.97      28.31       
H           102.83909   -68.7457    29.62084    
H           99.25       -68.37      28.73       
H           103.62      -71.66      31.23       
C           98.96       -69.19      29.38       
S           97.52       -70.72      30.92       
C           97.63       -69.4       29.73       
C           108.89      -80.76      36.49       
C           108.65      -80.58      35.17       
C           107.97      -80.14      37.39       
C           107.02      -79.24      36.92       
C           106.92      -78.88      35.52       
C           107.76      -79.63      34.67       
N           105.93      -78.71      37.55       
C           105.18      -77.92      36.73       
C           105.93      -77.86      35.37       
O           104.29      -77.29      37.22       
C           105.84      -78.74      39.01       
C           105.54      -77.07      34.23       
C           104.54      -76.04      33.93       
C           104.76      -75.58      32.62       
N           105.62      -76.39      31.93       
C           106.37      -77.04      32.88       
C           103.52      -75.41      34.67       
O           107.39      -77.65      32.61       
C           105.76      -76.62      30.53       
H           107.68      -79.55      33.59       
H           108.07      -80.28      38.45       
H           109.31      -81.11      34.49       
H           104.05      -74.28      30.99       
H           103.28      -75.83      35.6        
H           101.91      -74.01      34.75       
H           105.08      -78.03      39.34       
H           106.72      -78.37      39.5        
H           105.55125   -79.72174   39.38537    
H           106.73      -76.26      30.11       
H           105.50439   -77.62172   30.18458    
H           105.13      -75.92      29.95       
C           102.74      -74.37      34.15       
C           103.99      -74.57      32.06       
C           103.03      -73.93      32.85       
C           112.52      -86.5       40.3        
S           112.49      -84.75      40.59       
C           112.07      -86.74      39.02       
C           111.59      -85.53      38.3        
C           111.74      -84.38      39.09       
N           110.8       -85.31      37.15       
C           110.55      -83.97      37.2        
C           111.06      -83.34      38.39       
C           110.59      -86.18      36.05       
H           110.04      -85.65      35.28       
H           109.98      -86.98      36.4        
H           111.56643   -86.51519   35.70023    
H           109.24      -83.33      35.51       
H           111.95      -87.74      38.6        
C           109.77      -83.08      36.4        
S           110.66      -81.69      38.48       
C           109.79      -81.81      36.92       
C           114.86      -94.06      48.04       
C           114.23      -94.41      46.86       
C           115.24      -92.76      48.21       
C           114.83      -91.79      47.25       
C           114.12      -92.14      46.09       
C           113.87      -93.5       45.88       
N           115.0       -90.41      47.3        
C           114.36      -89.79      46.22       
C           113.82      -90.87      45.38       
O           114.26      -88.58      46.21       
C           115.37      -89.68      48.52       
C           113.52      -90.63      44.06       
C           113.11      -89.47      43.3        
C           113.36      -89.72      41.9        
N           113.69      -91.05      41.66       
C           113.67      -91.63      42.9        
C           112.64      -88.25      43.57       
O           113.95      -92.83      42.94       
C           113.9       -91.87      40.5        
H           113.44      -93.91      44.98       
H           115.69      -92.45      49.12       
H           113.9       -95.4       46.65       
H           113.45      -88.96      39.87       
H           112.59      -87.92      44.52       
H           112.22      -86.23      42.94       
H           114.78      -90.23      49.23       
H           114.83      -88.7       48.6        
H           116.45136   -89.68      48.65697    
H           114.37      -91.26      39.73       
H           112.96566   -92.27043   40.10659    
H           114.64      -92.7       40.79       
C           112.5       -87.27      42.6        
C           113.15      -88.79      40.92       
C           112.82      -87.48      41.28       
C           114.78      -100.34     52.53       
S           114.63      -100.22     50.76       
C           115.24      -99.15      53.08       
C           115.51      -98.15      52.14       
C           115.17      -98.53      50.84       
N           116.01      -96.82      52.05       
C           115.7       -96.35      50.81       
C           115.29      -97.41      50.07       
C           117.17      -96.31      52.82       
H           117.16      -95.19      52.96       
H           118.11      -96.68      52.36       
H           117.16258   -96.70327   53.83656    
H           116.11      -94.17      50.65       
H           115.32      -99.09      54.17       
C           115.7       -95.08      50.22       
S           114.98      -96.83      48.46       
C           115.18      -95.14      48.93       
C           108.99      -108.73     57.35       
C           109.59      -107.78     58.24       
C           109.03      -108.5      55.96       
C           109.76      -107.44     55.45       
C           110.41      -106.45     56.26       
C           110.26      -106.7      57.67       
N           109.88      -107.17     54.13       
C           110.55      -106.03     53.96       
C           111.1       -105.55     55.32       
O           110.92      -105.68     52.84       
C           109.62      -108.05     53.05       
C           111.99      -104.45     55.45       
C           112.54      -103.42     54.6        
C           113.69      -102.84     55.2        
N           113.85      -103.4      56.47       
C           112.85      -104.24     56.73       
C           112.23      -103.0      53.31       
O           112.81      -104.95     57.7        
C           114.95      -103.19     57.3        
H           110.74      -106.01     58.4        
H           108.53      -109.21     55.31       
H           109.42      -107.9      59.28       
H           115.23      -101.37     54.99       
H           111.35      -103.42     52.81       
H           112.79      -101.76     51.62       
H           110.52      -108.1      52.45       
H           109.45      -109.07     53.48       
H           108.83283   -107.79002  52.34227    
H           115.83      -103.31     56.63       
H           115.024     -102.19431  57.7373     
H           114.83      -103.95     58.12       
C           113.06      -102.07     52.66       
C           114.4       -101.85     54.52       
C           114.15      -101.47     53.28       
C           105.48      -115.35     59.48       
S           105.79      -114.68     57.9        
C           106.13      -114.6      60.43       
C           106.67      -113.38     59.93       
C           106.6       -113.25     58.53       
N           107.4       -112.28     60.43       
C           107.73      -111.48     59.36       
C           107.27      -112.04     58.22       
C           107.66      -112.07     61.81       
H           108.31      -111.23     61.92       
H           108.14      -112.92     62.37       
H           106.76154   -111.77995  62.35474    
H           108.91      -109.81     60.03       
H           106.26      -114.89     61.47       
C           108.48      -110.33     59.2        
S           107.56      -111.01     56.87       
C           108.38      -109.87     57.94       
C           99.05       -124.16     62.28       
C           99.15       -123.68     60.98       
C           100.01      -123.68     63.17       
C           100.93      -122.72     62.81       
C           100.94      -122.18     61.49       
C           100.05      -122.71     60.63       
N           101.87      -122.0      63.58       
C           102.46      -120.94     62.89       
C           101.87      -121.01     61.45       
O           103.38      -120.25     63.42       
C           102.33      -122.43     64.84       
C           102.32      -120.17     60.42       
C           103.16      -118.91     60.42       
C           103.45      -118.52     59.05       
N           102.83      -119.47     58.26       
C           102.21      -120.51     58.98       
C           103.69      -117.98     61.35       
O           101.82      -121.43     58.36       
C           102.66      -119.37     56.81       
H           100.03      -122.38     59.59       
H           100.02      -124.11     64.11       
H           98.54       -123.94     60.17       
H           104.59      -117.19     57.67       
H           103.44      -118.14     62.39       
H           104.57      -116.22     61.8        
H           102.44      -121.57     65.59       
H           101.69      -123.17     65.22       
H           103.31552   -122.88261  64.7305     
H           102.21      -120.28     56.46       
H           102.02624   -118.53907  56.50016    
H           103.66      -119.43     56.32       
C           104.37      -116.85     60.96       
C           104.25      -117.37     58.67       
C           104.73      -116.53     59.67       
C           93.9        -129.45     64.83       
S           94.49       -127.94     65.41       
C           94.5        -129.72     63.63       
C           95.49       -128.74     63.27       
C           95.49       -127.58     64.09       
N           96.49       -128.57     62.27       
C           96.98       -127.24     62.49       
C           96.39       -126.63     63.58       
C           96.65       -129.31     61.02       
H           97.72       -129.47     60.88       
H           96.3        -128.77     60.13       
H           96.15567    -130.27685  60.9255     
H           98.62       -126.61     61.04       
H           94.38       -130.64     63.1        
C           98.0        -126.4      61.89       
S           97.27       -125.18     64.03       
C           98.24       -125.32     62.65       
H           37.43       9.42        7.01        
H           92.94       -129.86     65.1        
