512

C           37.41       40.66       3.87        
C           36.65       41.7        4.44        
C           37.27       40.49       2.53        
C           36.45       41.33       1.76        
C           35.57       42.3        2.3         
C           35.68       42.44       3.73        
N           36.3        41.35       0.39        
C           35.36       42.16       -0.03       
C           34.8        42.93       1.22        
O           35.07       42.31       -1.22       
C           37.24       40.71       -0.54       
C           33.83       43.96       1.09        
C           33.05       44.61       0.01        
C           32.2        45.58       0.56        
N           32.32       45.61       1.94        
C           33.09       44.53       2.28        
C           32.96       44.42       -1.41       
O           33.26       44.26       3.49        
C           31.52       46.27       2.97        
H           35.18       43.26       4.32        
H           37.9        39.72       2.08        
H           36.76       41.87       5.52        
H           30.52       46.98       0.31        
H           33.48       43.67       -1.96       
H           31.85       44.97       -3.19       
H           38.05       40.21       -0.03       
H           36.7        39.96       -1.08       
H           37.76815    41.39798    -1.20018    
H           30.45       45.96       2.92        
H           31.49848    47.35295    2.84808     
H           31.98       46.06       4.01        
C           31.98       45.16       -2.15       
C           31.23       46.31       -0.21       
C           31.16       46.13       -1.59       
C           41.09       34.85       7.61        
S           40.39       34.91       5.98        
C           41.03       36.1        8.28        
C           40.35       37.07       7.49        
C           39.91       36.58       6.23        
N           39.87       38.41       7.61        
C           39.34       38.78       6.41        
C           39.25       37.66       5.57        
C           40.17       39.33       8.7         
H           39.5        40.16       8.54        
H           41.15       39.92       8.56        
H           39.84434    38.95368    9.66975     
H           38.64       40.91       6.36        
H           41.45       36.37       9.23        
C           38.77       39.95       5.86        
S           38.65       38.03       3.97        
C           38.23       39.69       4.61        
C           47.25       26.05       10.88       
C           46.99       27.17       11.59       
C           46.61       25.91       9.63        
C           45.83       26.97       9.12        
C           45.59       28.1        9.94        
C           46.2        28.2        11.15       
N           45.01       27.07       7.98        
C           44.51       28.33       7.76        
C           44.63       29.01       9.1         
O           43.82       28.74       6.84        
C           44.84       25.98       7.01        
C           43.92       30.19       9.44        
C           43.17       31.21       8.66        
C           42.72       32.19       9.58        
N           43.2        31.81       10.91       
C           43.72       30.56       10.9        
C           43.01       31.63       7.35        
O           43.88       29.81       11.89       
C           42.96       32.48       12.18       
H           45.98       29.0        11.88       
H           46.71       24.97       9.08        
H           47.43       27.32       12.62       
H           41.45       33.9        10.15       
H           43.35       31.02       6.54        
H           42.23       33.02       5.99        
H           44.85       25.07       7.57        
H           43.89       25.95       6.56        
H           45.65898    25.98       6.29072     
H           42.71       31.73       12.9        
H           43.8676     32.93732    12.574      
H           42.12       33.13       11.99       
C           42.26       32.77       7.0         
C           41.93       33.37       9.37        
C           41.74       33.65       8.01        
C           51.71       20.1        13.05       
S           51.52       20.88       11.46       
C           51.22       20.84       14.09       
C           50.34       21.87       13.62       
C           50.5        22.06       12.21       
N           49.54       22.88       14.12       
C           49.16       23.63       13.01       
C           49.76       23.16       11.84       
C           49.07       22.99       15.47       
H           48.68       24.01       15.68       
H           49.94       22.95       16.14       
H           48.32446    22.22336    15.681      
H           47.7        25.16       13.63       
H           51.34       20.62       15.14       
C           48.21       24.66       12.79       
S           49.11       24.05       10.49       
C           48.18       25.06       11.49       
C           58.13       10.87       13.27       
C           56.96       10.93       14.07       
C           58.53       11.93       12.46       
C           57.7        13.05       12.45       
C           56.58       13.26       13.32       
C           56.21       12.11       14.06       
N           57.9        14.13       11.63       
C           57.19       15.22       12.06       
C           56.11       14.72       13.02       
O           57.45       16.39       11.73       
C           58.73       14.14       10.39       
C           55.08       15.43       13.58       
C           54.37       16.7        13.23       
C           53.45       16.99       14.32       
N           53.52       15.96       15.24       
C           54.43       15.01       14.91       
C           54.45       17.64       12.15       
O           54.67       14.19       15.72       
C           52.44       15.76       16.19       
H           55.38       12.1        14.72       
H           59.43       11.82       11.85       
H           56.67       10.16       14.72       
H           51.81       18.13       15.1        
H           55.08       17.46       11.3        
H           53.56       19.44       11.22       
H           59.43       15.0        10.46       
H           59.3        13.22       10.18       
H           58.07601    14.13273    9.51802     
H           52.3        14.7        16.32       
H           52.56877    16.26829    17.14559    
H           51.51       15.93       15.63       
C           53.48       18.71       12.08       
C           52.52       18.1        14.27       
C           52.55       18.91       13.11       
C           63.36       5.06        13.71       
S           63.42       6.64        12.93       
C           62.11       4.89        14.31       
C           61.23       5.93        14.16       
C           61.73       6.95        13.35       
N           59.9        6.25        14.47       
C           59.6        7.49        13.91       
C           60.74       7.98        13.19       
C           58.99       5.46        15.28       
H           58.02       5.92        15.23       
H           59.1        5.62        16.37       
H           58.93807    4.39912     15.03518    
H           57.63       8.28        14.44       
H           61.78       4.0         14.8        
C           58.57       8.44        13.99       
S           60.46       9.53        12.54       
C           58.89       9.59        13.32       
C           72.59       -1.15       15.74       
C           72.67       0.06        15.0        
C           71.31       -1.72       15.95       
C           70.17       -1.0        15.51       
C           70.2        0.21        14.87       
C           71.55       0.76        14.64       
N           68.88       -1.39       15.72       
C           68.02       -0.5        15.05       
C           68.78       0.71        14.59       
O           66.76       -0.63       14.99       
C           68.48       -2.73       16.06       
C           68.14       1.86        14.09       
C           66.74       2.47        14.11       
C           66.87       3.73        13.5        
N           68.15       3.91        13.0        
C           68.98       2.89        13.37       
C           65.5        2.19        14.54       
O           70.11       2.86        12.87       
C           68.55       5.08        12.27       
H           71.66       1.69        14.15       
H           71.17       -2.71       16.35       
H           73.71       0.4         14.85       
H           65.93       5.65        12.91       
H           65.26       1.2         14.92       
H           63.41       2.81        14.88       
H           69.09       -3.08       16.82       
H           67.52       -2.77       16.48       
H           68.52265    -3.36977    15.17854    
H           67.8        5.55        11.73       
H           68.84425    5.9137      12.90754    
H           69.36       4.91        11.65       
C           64.39       3.07        14.45       
C           65.81       4.64        13.36       
C           64.52       4.27        13.82       
C           78.1        -5.87       18.3        
S           76.73       -5.09       19.07       
C           78.14       -5.46       16.97       
C           77.09       -4.56       16.58       
C           76.29       -4.25       17.64       
N           76.7        -3.91       15.44       
C           75.56       -3.17       15.75       
C           75.28       -3.39       17.1        
C           77.09       -4.37       14.1        
H           76.8        -3.64       13.39       
H           76.68       -5.27       13.81       
H           78.16696    -4.52795    14.04256    
H           74.64       -2.06       14.01       
H           78.94       -5.92       16.3        
C           74.7        -2.31       15.05       
S           73.93       -2.54       17.58       
C           73.77       -1.93       15.96       
C           83.08       -15.18      22.43       
C           81.69       -15.17      22.29       
C           83.86       -14.09      22.14       
C           83.14       -13.02      21.59       
C           81.73       -12.92      21.46       
C           80.98       -14.04      21.89       
N           83.78       -11.86      21.08       
C           82.8        -10.94      20.59       
C           81.42       -11.51      20.92       
O           83.11       -9.86       20.16       
C           85.16       -11.49      21.16       
C           80.24       -10.81      20.65       
C           79.97       -9.52       19.94       
C           78.62       -9.15       20.11       
N           77.97       -10.14      20.82       
C           78.81       -11.22      21.08       
C           80.61       -8.55       19.13       
O           78.5        -12.26      21.63       
C           76.63       -10.15      21.24       
H           79.9        -14.07      21.72       
H           84.92       -14.05      22.13       
H           81.0        -16.02      22.53       
H           77.04       -7.61       20.12       
H           81.56       -8.69       18.7        
H           80.64       -6.8        17.97       
H           85.39       -10.82      20.34       
H           85.68       -12.45      21.07       
H           85.37228    -10.94515   22.07988    
H           76.44       -9.34       21.96       
H           75.9124     -10.06558   20.4239     
H           76.46       -11.04      21.81       
C           80.04       -7.38       18.67       
C           77.96       -7.89       19.72       
C           78.73       -7.04       18.92       
C           87.78       -19.57      26.8        
S           87.97       -18.05      25.94       
C           86.42       -19.98      26.71       
C           85.66       -19.13      25.91       
C           86.36       -18.14      25.32       
N           84.33       -19.16      25.45       
C           84.27       -18.06      24.57       
C           85.49       -17.43      24.54       
C           83.25       -19.88      26.05       
H           82.55       -20.08      25.28       
H           83.57       -20.8       26.6        
H           82.72697    -19.27329   26.78921    
H           82.25       -17.7       23.64       
H           86.12       -20.92      27.14       
C           83.23       -17.35      23.83       
S           85.49       -16.13      23.45       
C           83.75       -16.26      23.16       
C           96.06       -24.3       32.65       
C           96.19       -23.11      31.96       
C           94.84       -24.91      32.69       
C           93.76       -24.35      32.08       
C           93.87       -23.11      31.35       
C           95.13       -22.47      31.36       
N           92.44       -24.84      32.07       
C           91.62       -24.02      31.29       
C           92.51       -22.97      30.66       
O           90.51       -24.28      30.95       
C           91.89       -25.76      33.07       
C           92.11       -22.1       29.68       
C           90.82       -21.61      29.03       
C           91.14       -20.76      27.97       
N           92.49       -20.69      27.85       
C           93.12       -21.29      28.86       
C           89.4        -21.82      29.35       
O           94.3        -21.33      29.0        
C           93.21       -20.65      26.58       
H           95.37       -21.53      30.88       
H           94.78       -25.92      33.06       
H           97.12       -22.49      31.96       
H           90.48       -19.41      26.4        
H           89.0        -22.47      30.18       
H           87.42       -21.34      28.7        
H           91.03       -25.23      33.64       
H           92.66       -26.07      33.75       
H           91.39188    -26.62996   32.64204    
H           92.5        -20.63      25.82       
H           93.71011    -19.6939    26.42555    
H           93.85       -21.5       26.44       
C           88.5        -21.03      28.6        
C           90.19       -20.06      27.23       
C           88.84       -20.23      27.57       
C           102.16      -27.61      36.22       
S           100.45      -27.68      36.6        
C           102.45      -26.99      35.05       
C           101.3       -26.36      34.53       
C           100.11      -26.62      35.25       
N           100.87      -25.45      33.51       
C           99.5        -25.28      33.55       
C           99.02       -26.02      34.56       
C           101.73      -24.91      32.49       
H           102.57      -25.53      32.63       
H           101.49      -24.98      31.42       
H           102.01654   -23.89608   32.7692     
H           98.69       -23.84      31.98       
H           103.45      -27.02      34.59       
C           98.53       -24.47      32.87       
S           97.31       -25.89      34.57       
C           97.26       -24.72      33.29       
C           109.01      -32.93      43.29       
C           109.55      -32.09      42.35       
C           107.64      -33.25      43.25       
C           106.85      -32.63      42.28       
C           107.33      -31.65      41.36       
C           108.77      -31.48      41.38       
N           105.51      -32.97      42.05       
C           105.02      -32.08      41.1        
C           106.09      -31.08      40.64       
O           103.85      -32.0       40.92       
C           104.8       -34.13      42.48       
C           105.96      -30.11      39.67       
C           104.81      -29.63      38.86       
C           105.24      -28.48      38.17       
N           106.52      -28.18      38.47       
C           107.09      -29.11      39.32       
C           103.53      -30.06      38.58       
O           108.16      -28.82      39.82       
C           107.12      -26.88      38.19       
H           109.19      -30.8       40.66       
H           107.28      -34.01      43.91       
H           110.65      -31.87      42.33       
H           104.85      -27.03      36.71       
H           103.06      -30.88      39.1        
H           101.68      -29.74      37.75       
H           103.78      -33.79      42.71       
H           105.07      -34.43      43.52       
H           104.96074   -35.01057   41.85801    
H           107.56      -26.47      39.12       
H           107.81164   -26.92278   37.34863    
H           106.31      -26.19      37.92       
C           102.65      -29.37      37.78       
C           104.43      -27.88      37.22       
C           103.11      -28.29      37.12       
C           112.17      -37.48      48.69       
S           110.63      -36.57      48.6        
C           112.99      -37.21      47.56       
C           112.43      -36.21      46.64       
C           111.16      -35.81      47.07       
N           112.66      -35.77      45.39       
C           111.53      -34.99      45.07       
C           110.58      -34.99      46.07       
C           113.9       -35.8       44.72       
H           113.71      -35.39      43.73       
H           114.4       -36.74      44.73       
H           114.51757   -34.95528   45.02523    
H           111.62      -34.06      43.06       
H           113.9       -37.76      47.29       
C           111.09      -34.14      44.01       
S           109.12      -34.1       45.7        
C           109.85      -33.63      44.2        
C           112.52      -45.44      56.35       
C           113.03      -45.55      55.1        
C           112.35      -44.07      56.87       
C           112.55      -43.01      56.03       
C           113.05      -43.12      54.69       
C           113.28      -44.42      54.3        
N           112.43      -41.63      56.32       
C           112.67      -40.89      55.14       
C           113.11      -41.82      54.0        
O           112.65      -39.7       55.07       
C           111.84      -40.97      57.51       
C           113.41      -41.38      52.74       
C           112.95      -40.26      51.89       
C           113.54      -40.38      50.62       
N           114.45      -41.43      50.62       
C           114.33      -42.15      51.84       
C           112.09      -39.1       52.0        
O           114.98      -43.13      51.99       
C           115.5       -41.59      49.65       
H           113.68      -44.7       53.29       
H           111.9       -43.88      57.9        
H           113.4       -46.52      54.79       
H           113.79      -39.67      48.58       
H           111.65      -38.84      53.0        
H           111.24      -37.33      51.08       
H           111.03      -41.65      57.79       
H           111.39      -40.05      57.24       
H           112.52698   -40.80541   58.3401     
H           115.84      -40.58      49.13       
H           115.29652   -42.38358   48.93103    
H           116.32      -42.01      50.24       
C           111.81      -38.28      50.93       
C           113.3       -39.56      49.53       
C           112.4       -38.49      49.71       
C           109.85      -52.15      59.15       
S           110.43      -51.72      57.51       
C           110.05      -51.13      60.09       
C           110.58      -49.94      59.41       
C           110.78      -50.1       58.05       
N           110.94      -48.67      59.85       
C           111.4       -48.04      58.69       
C           111.34      -48.93      57.57       
C           111.1       -48.14      61.21       
H           111.39      -47.08      61.15       
H           111.96      -48.53      61.67       
H           110.17441   -48.24045   61.77683    
H           111.67      -45.88      59.05       
H           109.84      -51.22      61.1        
C           111.75      -46.68      58.39       
S           112.03      -48.13      56.24       
C           112.24      -46.63      57.12       
C           106.67      -62.67      61.72       
C           106.79      -61.67      62.7        
C           107.09      -62.37      60.44       
C           107.46      -61.08      60.05       
C           107.49      -60.02      61.0        
C           107.19      -60.4       62.29       
N           107.81      -60.56      58.8        
C           108.03      -59.15      58.82       
C           107.97      -58.74      60.27       
O           108.13      -58.55      57.75       
C           107.88      -61.33      57.57       
C           108.17      -57.45      60.7        
C           108.72      -56.16      60.11       
C           108.45      -55.09      61.01       
N           107.58      -55.46      62.04       
C           107.51      -56.88      62.0        
C           109.49      -55.89      58.96       
O           106.73      -57.5       62.74       
C           106.93      -54.62      63.08       
H           107.35      -59.73      63.11       
H           107.04      -63.17      59.71       
H           106.65      -61.87      63.76       
H           108.45      -52.93      61.3        
H           109.68      -56.67      58.25       
H           110.62      -54.43      57.89       
H           108.64      -60.89      56.95       
H           108.23      -62.3       57.96       
H           106.94115   -61.43589   57.02645    
H           105.89      -55.01      63.3        
H           107.4876    -54.6057    64.01647    
H           106.7       -53.63      62.62       
C           109.89      -54.62      58.64       
C           108.75      -53.75      60.61       
C           109.54      -53.53      59.46       
C           104.21      -70.01      62.52       
S           104.69      -69.04      61.11       
C           104.34      -69.31      63.71       
C           104.9       -67.99      63.47       
C           105.05      -67.69      62.15       
N           105.29      -66.9       64.23       
C           105.66      -65.92      63.37       
C           105.52      -66.35      62.07       
C           105.17      -66.83      65.68       
H           105.61      -65.94      65.98       
H           105.63      -67.67      66.2        
H           104.16457   -67.0154    66.05793    
H           106.43      -64.08      64.28       
H           104.0       -69.72      64.65       
C           106.15      -64.59      63.39       
S           105.97      -65.18      60.85       
C           106.24      -64.0       62.13       
C           98.66       -79.47      60.05       
C           99.62       -79.01      59.24       
C           98.5        -78.9       61.32       
C           99.27       -77.82      61.66       
C           100.21      -77.22      60.78       
C           100.38      -77.87      59.57       
N           99.25       -77.09      62.86       
C           100.16      -76.1       62.82       
C           100.81      -76.01      61.43       
O           100.34      -75.29      63.78       
C           98.35       -77.21      63.92       
C           101.92      -75.11      61.09       
C           102.39      -73.85      61.72       
C           103.49      -73.37      60.97       
N           103.79      -74.3       59.92       
C           102.84      -75.33      59.88       
C           102.02      -72.97      62.81       
O           102.97      -76.11      59.02       
C           104.56      -73.85      58.81       
H           101.0       -77.5       58.75       
H           97.78       -79.33      62.06       
H           99.69       -79.35      58.21       
H           104.9       -71.81      60.47       
H           101.17      -73.29      63.42       
H           102.26      -71.3       63.91       
H           98.18       -76.21      64.25       
H           97.35       -77.55      63.7        
H           98.73884    -77.80387   64.74718    
H           105.01      -74.64      58.39       
H           104.03213   -73.19373   58.11807    
H           105.34      -73.26      59.23       
C           102.68      -71.79      63.07       
C           104.16      -72.13      61.2        
C           103.76      -71.35      62.31       
C           93.79       -85.12      58.1        
S           94.11       -84.52      59.66       
C           94.71       -84.76      57.21       
C           95.62       -83.84      57.7        
C           95.41       -83.57      59.05       
N           96.76       -83.2       57.24       
C           97.05       -82.29      58.21       
C           96.3        -82.52      59.37       
C           97.26       -83.12      55.86       
H           98.27       -82.66      55.82       
H           96.59       -82.54      55.26       
H           97.40346    -84.13142   55.47982    
H           98.72       -80.92      57.56       
H           94.62       -85.09      56.16       
C           98.05       -81.27      58.3        
S           96.61       -81.3       60.56       
C           97.89       -80.62      59.57       
H           30.31       46.58       -2.05       
H           93.17       -85.98      57.92       
