512

C           24.4        11.23       41.02       
C           23.78       10.05       40.72       
C           23.68       12.41       40.88       
C           22.38       12.28       40.31       
C           21.7        11.08       39.98       
C           22.41       9.94        40.36       
N           21.6        13.37       39.87       
C           20.36       12.94       39.37       
C           20.32       11.38       39.45       
O           19.56       13.77       39.04       
C           21.8        14.75       40.2        
C           19.25       10.59       39.13       
C           17.86       10.92       38.56       
C           17.23       9.62        38.35       
N           18.02       8.57        38.75       
C           19.21       9.05        39.18       
C           17.14       12.06       38.18       
O           20.09       8.25        39.45       
C           17.65       7.21        38.42       
H           21.92       8.99        40.39       
H           24.08       13.41       41.03       
H           24.44       9.16        40.68       
H           15.37       8.62        37.55       
H           17.65       13.02       37.95       
H           15.27       12.83       37.35       
H           22.81       14.96       40.51       
H           21.69       15.37       39.37       
H           21.18299    15.10057    41.02735    
H           17.21       7.27        37.42       
H           17.113      6.77496     39.26289    
H           18.56       6.71        38.35       
C           15.84       11.95       37.68       
C           15.91       9.53        37.84       
C           15.33       10.71       37.48       
C           32.16       10.69       41.27       
S           30.95       9.5         40.79       
C           31.64       11.88       41.72       
C           30.23       11.88       41.66       
C           29.71       10.66       41.15       
N           29.14       12.68       41.88       
C           27.98       11.99       41.7        
C           28.28       10.76       41.24       
C           29.19       14.02       42.46       
H           28.25       14.46       42.71       
H           29.49       14.69       41.62       
H           29.90837    14.14677    43.26992    
H           26.18       13.22       42.01       
H           32.2        12.76       42.05       
C           26.58       12.29       41.6        
S           26.88       9.89        40.85       
C           25.88       11.28       41.11       
C           43.12       8.58        43.02       
C           42.21       7.53        43.13       
C           42.75       9.83        42.35       
C           41.39       9.95        42.04       
C           40.38       8.9         42.22       
C           40.81       7.67        42.69       
N           40.79       11.06       41.42       
C           39.47       10.86       41.16       
C           39.1        9.59        41.78       
O           38.84       11.77       40.65       
C           41.35       12.46       41.62       
C           37.75       9.23        41.83       
C           36.44       9.83        41.56       
C           35.42       8.81        41.65       
N           36.06       7.59        41.79       
C           37.33       7.78        42.1        
C           35.92       11.09       41.25       
O           38.04       6.81        42.34       
C           35.42       6.34        41.89       
H           40.19       6.83        42.81       
H           43.46       10.62       42.19       
H           42.43       6.55        43.54       
H           33.22       8.23        41.58       
H           36.58       11.98       40.98       
H           34.27       12.31       40.9        
H           42.37       12.41       41.96       
H           41.19       13.05       40.75       
H           40.84377    12.88889    42.48481    
H           34.54       6.46        42.53       
H           35.09087    5.93932     40.93123    
H           36.02       5.66        42.55       
C           34.57       11.28       41.09       
C           33.98       9.03        41.52       
C           33.57       10.28       41.24       
C           50.79       8.41        44.65       
S           49.75       9.78        44.44       
C           50.09       7.2         44.62       
C           48.69       7.43        44.34       
C           48.34       8.73        44.28       
N           47.58       6.54        44.19       
C           46.49       7.37        44.0        
C           46.96       8.69        44.09       
C           47.63       5.13        44.09       
H           46.6        4.81        43.93       
H           47.82       4.73        45.11       
H           48.28459    4.73123     43.31502    
H           44.76       6.3         43.42       
H           50.52       6.24        44.9        
C           45.12       7.26        43.63       
S           45.54       9.74        43.86       
C           44.45       8.4         43.62       
C           61.87       10.38       45.09       
C           61.32       9.19        45.65       
C           61.04       11.22       44.35       
C           59.71       10.98       44.27       
C           59.08       9.8         44.77       
C           59.97       8.96        45.51       
N           58.87       11.68       43.44       
C           57.59       11.11       43.58       
C           57.65       9.81        44.36       
O           56.61       11.52       42.92       
C           59.1        12.92       42.75       
C           56.6        8.96        44.57       
C           55.11       9.14        44.48       
C           54.48       7.86        44.94       
N           55.5        6.98        45.19       
C           56.78       7.47        45.06       
C           54.13       10.16       44.2        
O           57.81       6.79        45.2        
C           55.35       5.56        45.52       
H           59.6        8.04        45.83       
H           61.48       11.99       43.76       
H           61.94       8.5         46.21       
H           52.72       6.69        45.37       
H           54.37       11.13       43.93       
H           52.11       10.65       43.91       
H           60.19       13.01       42.41       
H           58.53       12.9        41.82       
H           58.93952    13.78074    43.39921    
H           56.33       4.99        45.47       
H           54.74075    5.39893     46.40937    
H           54.78       5.09        44.69       
C           52.76       9.82        44.3        
C           53.09       7.61        44.98       
C           52.22       8.65        44.71       
C           68.9        13.72       45.89       
S           67.37       14.34       45.33       
C           68.82       12.39       46.34       
C           67.47       11.85       46.12       
C           66.61       12.85       45.72       
N           66.86       10.59       46.34       
C           65.57       10.78       45.94       
C           65.41       12.14       45.62       
C           67.5        9.45        46.9        
H           66.76       8.82        47.27       
H           68.12       9.62        47.73       
H           68.07896    8.89928     46.15864    
H           64.17       9.09        46.3        
H           69.61       11.86       46.92       
C           64.28       10.08       45.93       
S           63.78       12.38       44.93       
C           63.26       10.75       45.31       
C           77.42       20.47       48.65       
C           76.11       20.96       48.41       
C           77.62       19.15       48.31       
C           76.59       18.42       47.68       
C           75.33       18.9        47.35       
C           75.14       20.19       47.74       
N           76.84       17.12       47.19       
C           75.6        16.65       46.75       
C           74.52       17.74       46.9        
O           75.5        15.47       46.48       
C           78.05       16.34       47.35       
C           73.16       17.5        46.54       
C           72.29       16.31       46.27       
C           70.92       16.75       45.94       
N           70.95       18.14       45.92       
C           72.13       18.66       46.37       
C           72.4        14.93       46.41       
O           72.4        19.87       46.26       
C           69.72       18.99       45.73       
H           74.22       20.68       47.54       
H           78.59       18.75       48.56       
H           75.86       21.97       48.61       
H           68.92       16.4        45.74       
H           73.36       14.57       46.79       
H           71.48       13.01       46.19       
H           78.87       17.09       47.37       
H           78.01       15.78       48.19       
H           78.31532    15.68049    46.52371    
H           69.06       18.54       45.0        
H           69.23188    19.21637    46.67794    
H           70.05       19.97       45.32       
C           71.34       14.09       46.1        
C           69.85       15.94       45.87       
C           70.05       14.57       46.01       
C           82.78       24.15       52.97       
S           82.71       22.52       52.19       
C           81.69       24.95       52.61       
C           80.79       24.22       51.72       
C           81.26       22.88       51.43       
N           79.67       24.34       50.99       
C           79.4        23.19       50.28       
C           80.32       22.24       50.65       
C           78.91       25.65       50.96       
H           78.15       25.42       50.22       
H           79.5        26.54       50.87       
H           78.44356    25.73354    51.94161    
H           77.6        23.27       48.93       
H           81.5        25.93       52.96       
C           78.41       22.72       49.4        
S           80.0        20.76       49.85       
C           78.48       21.34       49.21       
C           91.39       27.1        59.63       
C           91.39       25.85       59.01       
C           90.25       27.99       59.62       
C           89.16       27.65       58.88       
C           89.11       26.45       58.13       
C           90.18       25.56       58.39       
N           88.05       28.44       58.48       
C           87.18       27.71       57.69       
C           87.83       26.4        57.4        
O           86.13       28.19       57.3        
C           87.98       29.86       58.6        
C           87.27       25.46       56.49       
C           86.0        25.35       55.73       
C           86.09       24.23       54.75       
N           87.4        23.7        54.81       
C           88.12       24.38       55.81       
C           84.69       25.97       55.77       
O           89.21       24.09       56.02       
C           87.9        22.53       53.99       
H           90.09       24.47       57.99       
H           90.36       28.98       60.03       
H           92.29       25.22       59.06       
H           85.18       22.99       53.22       
H           84.52       26.84       56.45       
H           82.88       26.21       54.67       
H           87.68       30.37       57.69       
H           88.88       30.31       58.94       
H           87.253      30.04874    59.38991    
H           88.9        22.56       54.17       
H           87.5223     21.57177    54.34671    
H           87.85       22.78       52.9        
C           83.74       25.59       54.81       
C           85.06       23.89       53.82       
C           83.86       24.55       53.88       
C           98.45       28.07       62.78       
S           97.9        27.42       61.25       
C           97.43       28.43       63.64       
C           96.12       28.19       63.0        
C           96.25       27.63       61.75       
N           94.77       28.25       63.38       
C           94.07       27.98       62.18       
C           95.0        27.49       61.21       
C           94.24       28.89       64.63       
H           93.22       29.13       64.49       
H           94.18       28.17       65.45       
H           94.79686    29.79124    64.88645    
H           91.84       28.19       62.41       
H           97.55       28.98       64.55       
C           92.66       27.89       61.82       
S           94.17       27.09       59.78       
C           92.56       27.48       60.45       
C           108.62      25.29       66.2        
C           108.31      25.35       64.83       
C           107.74      25.99       67.05       
C           106.59      26.57       66.54       
C           106.27      26.56       65.15       
C           107.18      25.91       64.27       
N           105.61      27.41       67.26       
C           104.6       27.75       66.41       
C           104.96      27.25       64.97       
O           103.7       28.46       66.87       
C           105.49      27.52       68.71       
C           104.07      27.42       63.87       
C           102.59      27.72       63.89       
C           102.11      27.69       62.54       
N           103.22      27.41       61.69       
C           104.42      27.2        62.42       
C           101.58      28.0        64.78       
O           105.51      27.06       61.88       
C           103.09      27.08       60.28       
H           106.97      25.74       63.25       
H           107.84      25.85       68.09       
H           108.93      24.9        64.09       
H           100.54      27.7        61.1        
H           101.67      28.14       65.88       
H           99.54       28.4        65.12       
H           106.03      26.63       69.02       
H           104.46      27.46       69.08       
H           106.11779   28.32819    69.08523    
H           102.25      26.46       60.05       
H           103.09      27.96402    59.64234    
H           103.96      26.44       60.0        
C           100.25      28.12       64.4        
C           100.8       27.84       62.1        
C           99.81       28.01       63.08       
C           114.0       20.89       69.63       
S           113.13      22.27       70.3        
C           113.62      20.59       68.38       
C           112.72      21.59       67.89       
C           112.36      22.61       68.78       
N           112.16      21.77       66.65       
C           111.35      22.9        66.83       
C           111.48      23.4        68.09       
C           112.36      21.01       65.48       
H           112.53      21.69       64.61       
H           113.29      20.36       65.48       
H           111.49131   20.3854     65.2718     
H           110.3       23.39       64.94       
H           113.92      19.71       67.9        
C           110.51      23.65       65.95       
S           110.36      24.72       68.29       
C           109.73      24.49       66.69       
C           121.34      15.1        75.96       
C           120.11      15.5        76.46       
C           121.68      15.57       74.7        
C           120.82      16.44       74.01       
C           119.58      16.93       74.51       
C           119.22      16.4        75.76       
N           121.0       16.94       72.73       
C           119.91      17.82       72.3        
C           118.9       17.71       73.41       
O           119.96      18.43       71.26       
C           122.22      16.73       72.0        
C           117.69      18.33       73.3        
C           116.99      18.83       72.17       
C           115.78      19.43       72.63       
N           115.75      19.3        73.99       
C           116.85      18.66       74.52       
C           117.09      18.82       70.81       
O           117.08      18.38       75.68       
C           114.76      19.76       74.93       
H           118.3       16.58       76.27       
H           122.56      15.17       74.2        
H           119.78      15.1        77.43       
H           113.9       20.28       72.37       
H           117.96      18.49       70.28       
H           116.28      19.4        68.89       
H           123.06      17.02       72.64       
H           122.19      17.44       71.2        
H           122.26945   15.71279    71.61148    
H           115.01      19.51       75.94       
H           114.49238   20.81602    74.89384    
H           113.97      19.15       74.66       
C           116.11      19.52       69.97       
C           114.75      20.0        71.84       
C           114.94      20.16       70.46       
C           123.59      8.38        79.05       
S           122.26      9.49        79.39       
C           124.47      8.93        78.15       
C           124.06      10.23       77.69       
C           122.87      10.62       78.28       
N           124.49      11.2        76.75       
C           123.54      12.24       76.86       
C           122.62      11.91       77.83       
C           125.63      11.14       75.76       
H           125.58      12.14       75.32       
H           125.4       10.47       75.01       
H           126.54722   10.815      76.25111    
H           123.9       13.93       75.43       
H           125.43      8.46        77.84       
C           123.32      13.53       76.19       
S           121.37      13.08       77.84       
C           122.12      14.1        76.62       
C           121.53      -2.02       83.2        
C           121.68      -0.97       84.09       
C           122.28      -1.88       82.07       
C           122.86      -0.66       81.73       
C           122.65      0.59        82.41       
C           122.24      0.27        83.74       
N           123.26      -0.27       80.4        
C           123.38      1.11        80.24       
C           123.03      1.76        81.58       
O           123.54      1.62        79.15       
C           123.55      -1.18       79.27       
C           122.83      3.2         81.7        
C           123.17      4.38        80.86       
C           122.66      5.56        81.41       
N           122.22      5.27        82.69       
C           122.18      3.93        82.92       
C           123.8       4.58        79.62       
O           122.12      3.49        84.08       
C           121.83      6.23        83.74       
H           122.17      1.05        84.54       
H           122.32      -2.65       81.29       
H           121.28      -1.14       85.12       
H           122.43      7.68        81.35       
H           124.31      3.78        79.17       
H           124.43      6.01        78.06       
H           123.18      -0.74       78.4        
H           122.9       -2.02       79.27       
H           124.62435   -1.36271    79.24807    
H           121.14      7.03        83.41       
H           122.71606   6.63084     84.23226    
H           121.28      5.63        84.5        
C           123.9       5.89        79.04       
C           122.72      6.85        80.78       
C           123.52      7.04        79.67       
C           116.24      -7.94       83.51       
S           117.15      -7.19       82.16       
C           116.77      -7.44       84.71       
C           117.75      -6.4        84.61       
C           118.05      -6.1        83.29       
N           118.51      -5.54       85.45       
C           119.33      -4.75       84.64       
C           118.97      -5.01       83.29       
C           118.69      -5.62       86.83       
H           119.47      -4.89       87.12       
H           118.93      -6.64       87.21       
H           117.78772   -5.30962    87.35693    
H           120.62      -3.26       85.69       
H           116.38      -7.82       85.64       
C           120.3       -3.68       84.76       
S           119.82      -4.01       82.23       
C           120.72      -3.19       83.51       
C           108.0       -15.48      82.15       
C           108.96      -15.27      81.13       
C           108.26      -14.85      83.34       
C           109.36      -14.0       83.47       
C           110.23      -13.61      82.4        
C           110.0       -14.37      81.22       
N           109.63      -13.22      84.54       
C           110.68      -12.4       84.28       
C           111.12      -12.54      82.87       
O           111.17      -11.83      85.24       
C           109.02      -13.26      85.91       
C           112.11      -11.81      82.33       
C           113.11      -10.87      82.98       
C           113.98      -10.49      81.95       
N           113.66      -11.07      80.7        
C           112.59      -11.86      80.89       
C           113.34      -10.2       84.24       
O           112.1       -12.4       79.89       
C           114.43      -11.12      79.45       
H           110.68      -14.34      80.37       
H           107.54      -15.03      84.15       
H           108.83      -15.66      80.15       
H           115.74      -9.49       81.31       
H           112.65      -10.25      85.12       
H           114.4       -8.62       85.24       
H           108.3       -14.07      86.02       
H           109.84      -13.51      86.63       
H           108.47686   -12.34028   86.12726    
H           114.0       -11.96      78.92       
H           114.44449   -10.23606   78.8124     
H           115.43      -11.49      79.68       
C           114.36      -9.29       84.34       
C           115.09      -9.68       82.14       
C           115.27      -9.03       83.34       
C           102.15      -20.74      81.88       
S           103.15      -20.23      83.24       
C           102.43      -20.01      80.78       
C           103.37      -18.92      81.0        
C           103.97      -19.02      82.31       
N           103.99      -18.03      80.19       
C           104.97      -17.56      81.06       
C           104.97      -18.07      82.28       
C           103.93      -17.78      78.78       
H           104.64      -17.01      78.53       
H           102.97      -17.49      78.57       
H           104.06077   -18.73901   78.2787     
H           106.19      -16.16      79.89       
H           102.0       -20.33      79.79       
C           106.03      -16.61      80.84       
S           106.31      -17.36      83.24       
C           106.8       -16.3       81.97       
C           95.74       -29.35      85.03       
C           96.0        -29.14      83.67       
C           96.55       -28.71      85.95       
C           97.49       -27.78      85.44       
C           97.69       -27.46      84.06       
C           96.91       -28.23      83.22       
N           98.44       -27.09      86.22       
C           99.2        -26.21      85.44       
C           98.67       -26.33      83.99       
O           99.89       -25.38      85.97       
C           98.73       -27.31      87.6        
C           99.0        -25.4       82.93       
C           100.04      -24.33      82.86       
C           99.72       -23.55      81.66       
N           98.67       -24.14      80.95       
C           98.33       -25.33      81.53       
C           101.11      -23.86      83.63       
O           97.46       -26.04      81.14       
C           98.58       -24.02      79.54       
H           97.12       -28.23      82.16       
H           96.57       -28.89      87.0        
H           95.48       -29.72      82.92       
H           100.31      -21.85      80.37       
H           101.51      -24.48      84.46       
H           102.54      -22.54      83.94       
H           98.65       -26.28      88.06       
H           98.01       -27.97      88.14       
H           99.7049     -27.77595   87.74337    
H           98.13       -24.96      79.18       
H           98.03342    -23.11632   79.27035    
H           99.63       -24.01      79.23       
C           101.73      -22.67      83.25       
C           100.44      -22.43      81.29       
C           101.37      -21.93      82.15       
C           90.43       -34.92      86.59       
S           91.49       -34.83      85.19       
C           90.71       -33.94      87.54       
C           91.65       -33.01      87.08       
C           92.27       -33.39      85.88       
N           92.15       -31.85      87.64       
C           93.17       -31.48      86.78       
C           93.26       -32.33      85.71       
C           91.45       -30.99      88.61       
H           92.1        -30.19      88.8        
H           91.29       -31.45      89.63       
H           90.60498    -30.43589   88.20134    
H           93.99       -29.4       87.26       
H           90.01       -33.86      88.39       
C           93.96       -30.3       86.58       
S           94.51       -31.8       84.53       
C           94.74       -30.36      85.46       
H           14.27       10.66       37.43       
H           89.98       -35.76      86.89       
