512

C           37.72       30.58       4.93        
C           36.79       31.17       5.79        
C           37.57       30.73       3.55        
C           36.4        31.45       3.12        
C           35.34       31.93       3.99        
C           35.64       31.85       5.35        
N           36.13       31.64       1.75        
C           34.82       32.13       1.65        
C           34.29       32.42       3.09        
O           34.27       32.26       0.54        
C           37.1        31.77       0.69        
C           33.04       32.97       3.3         
C           31.95       33.39       2.38        
C           30.82       33.76       3.19        
N           31.16       33.77       4.53        
C           32.39       33.2        4.69        
C           31.7        33.55       0.97        
O           32.86       32.93       5.81        
C           30.21       34.07       5.57        
H           35.08       32.41       6.08        
H           38.33       30.35       2.9         
H           36.9        31.08       6.9         
H           28.75       34.49       3.22        
H           32.56       33.51       0.32        
H           30.48       33.98       -0.58       
H           38.11       31.59       1.11        
H           36.91       31.13       -0.1        
H           37.10704    32.75591    0.22521     
H           29.27       33.57       5.38        
H           30.10122    35.1442     5.71957     
H           30.7        33.75       6.5         
C           30.46       33.73       0.46        
C           29.57       34.13       2.66        
C           29.35       33.96       1.26        
C           42.55       26.18       9.17        
S           41.76       27.68       9.56        
C           42.53       25.92       7.82        
C           41.61       26.76       7.13        
C           41.17       27.8        7.94        
N           41.09       26.82       5.87        
C           40.33       27.95       5.9         
C           40.43       28.64       7.1         
C           41.31       25.98       4.72        
H           40.6        26.41       3.93        
H           40.93       25.0        5.01        
H           42.33093    26.0152     4.33979     
H           39.27       28.22       4.02        
H           43.12       25.09       7.33        
C           39.5        28.61       4.98        
S           39.6        30.1        7.06        
C           38.92       29.76       5.44        
C           49.26       20.94       16.89       
C           48.63       22.11       17.17       
C           49.3        20.48       15.57       
C           48.62       21.19       14.52       
C           47.85       22.35       14.77       
C           47.92       22.78       16.13       
N           48.44       20.85       13.18       
C           47.52       21.69       12.57       
C           47.15       22.85       13.51       
O           47.08       21.42       11.46       
C           48.97       19.63       12.62       
C           46.25       23.96       13.14       
C           45.47       24.28       11.92       
C           44.71       25.51       12.26       
N           44.91       25.91       13.61       
C           45.94       25.1        14.15       
C           45.24       23.8        10.58       
O           46.29       25.32       15.31       
C           44.37       27.06       14.22       
H           47.34       23.61       16.42       
H           49.87       19.57       15.28       
H           48.46       22.47       18.12       
H           43.12       26.95       11.8        
H           45.83       23.0        10.13       
H           44.34       24.2        8.68        
H           49.12       19.7        11.51       
H           49.93       19.44       13.08       
H           48.24844    18.81736    12.70407    
H           44.08       27.81       13.5        
H           43.52657    26.79994    14.8596     
H           45.13       27.49       14.83       
C           44.38       24.51       9.71        
C           43.72       26.1        11.41       
C           43.52       25.59       10.13       
C           51.38       15.23       21.75       
S           51.15       15.2        20.0        
C           51.08       16.45       22.29       
C           50.76       17.42       21.28       
C           50.8        16.92       19.97       
N           50.54       18.83       21.28       
C           50.3        19.11       19.98       
C           50.4        17.97       19.17       
C           50.21       19.62       22.43       
H           49.69       20.56       22.19       
H           51.01       19.96       23.01       
H           49.54566    19.04231    23.07268    
H           49.89       21.28       19.7        
H           51.16       16.61       23.33       
C           49.87       20.28       19.27       
S           50.11       18.38       17.47       
C           49.65       20.05       18.0        
C           57.49       6.97        26.34       
C           57.04       7.97        27.16       
C           57.2        6.99        24.94       
C           56.44       7.99        24.48       
C           55.89       9.05        25.23       
C           56.28       9.01        26.64       
N           56.07       8.14        23.12       
C           55.31       9.33        22.96       
C           55.12       9.99        24.3        
O           54.93       9.59        21.84       
C           56.44       7.29        22.04       
C           54.27       11.13       24.48       
C           53.5        12.01       23.55       
C           52.84       13.0        24.34       
N           53.28       12.89       25.72       
C           54.08       11.77       25.87       
C           53.31       12.14       22.19       
O           54.54       11.5        26.99       
C           52.82       13.61       26.91       
H           55.79       9.66        27.38       
H           57.56       6.18        24.39       
H           57.06       7.86        28.26       
H           51.61       14.7        24.49       
H           53.71       11.43       21.45       
H           52.43       13.16       20.52       
H           56.97       6.36        22.39       
H           55.52       6.86        21.57       
H           57.15197    7.78077     21.37642    
H           52.49       14.59       26.62       
H           52.04389    13.06174    27.44402    
H           53.63       13.81       27.64       
C           52.53       13.13       21.66       
C           52.03       14.0        23.84       
C           51.9        14.03       22.49       
C           62.58       1.24        28.02       
S           62.2        1.95        26.47       
C           61.75       1.75        28.96       
C           60.91       2.78        28.51       
C           61.0        3.07        27.12       
N           59.92       3.58        29.07       
C           59.43       4.45        28.09       
C           60.12       4.18        26.86       
C           59.72       3.74        30.55       
H           59.11       4.55        30.76       
H           60.67       3.71        31.1        
H           59.21285    2.83284     30.87858    
H           57.81       5.8         28.85       
H           61.71       1.35        29.94       
C           58.51       5.5         28.07       
S           59.52       5.32        25.68       
C           58.41       5.96        26.83       
C           70.96       -6.17       28.9        
C           70.37       -5.95       27.64       
C           70.44       -5.52       29.98       
C           69.36       -4.74       29.78       
C           68.76       -4.4        28.52       
C           69.32       -5.08       27.46       
N           68.67       -4.13       30.81       
C           67.77       -3.25       30.31       
C           67.71       -3.37       28.8        
O           67.13       -2.47       31.06       
C           68.56       -4.51       32.2        
C           66.95       -2.51       28.04       
C           65.8        -1.55       28.3        
C           65.53       -0.85       27.13       
N           66.4        -1.23       26.12       
C           67.27       -2.27       26.58       
C           64.97       -1.3        29.38       
O           68.08       -2.8        25.81       
C           66.59       -0.53       24.85       
H           69.02       -4.95       26.44       
H           70.84       -5.66       31.0        
H           70.82       -6.38       26.77       
H           64.35       0.51        26.1        
H           65.21       -1.68       30.34       
H           63.38       -0.13       30.18       
H           69.27       -5.33       32.45       
H           68.77       -3.67       32.92       
H           67.57919    -4.88461    32.49288    
H           67.63       -0.44       24.53       
H           65.93257    -0.82375    24.03171    
H           66.38       0.47        24.92       
C           63.93       -0.34       29.31       
C           64.44       0.04        27.04       
C           63.69       0.29        28.16       
C           77.25       -10.42      29.77       
S           76.03       -10.04      30.93       
C           77.05       -9.85       28.58       
C           75.86       -9.08       28.55       
C           75.22       -9.05       29.73       
N           75.21       -8.33       27.59       
C           74.07       -7.9        28.21       
C           74.08       -8.3        29.55       
C           75.31       -8.31       26.14       
H           75.0        -7.38       25.78       
H           74.68       -9.01       25.54       
H           76.34139    -8.25536    25.79165    
H           72.69       -6.68       26.96       
H           77.75       -10.01      27.78       
C           72.93       -7.17       27.88       
S           72.76       -7.68       30.49       
C           72.12       -7.06       28.95       
C           87.1        -14.32      33.47       
C           86.97       -13.37      32.39       
C           85.91       -14.74      34.1        
C           84.68       -14.34      33.62       
C           84.58       -13.52      32.45       
C           85.77       -13.11      31.81       
N           83.42       -14.72      34.13       
C           82.47       -14.18      33.27       
C           83.12       -13.33      32.22       
O           81.34       -14.47      33.37       
C           83.12       -15.88      34.97       
C           82.39       -12.63      31.27       
C           81.0        -12.26      31.09       
C           80.91       -11.53      29.86       
N           82.06       -11.56      29.15       
C           83.02       -12.24      29.9        
C           79.83       -12.28      31.85       
O           84.03       -12.68      29.37       
C           82.41       -10.64      28.17       
H           85.77       -12.54      30.92       
H           85.93       -15.37      35.04       
H           87.85       -12.99      31.93       
H           79.65       -10.53      28.37       
H           79.83       -12.62      32.87       
H           77.91       -11.54      32.23       
H           83.64       -16.78      34.64       
H           81.99       -16.01      35.03       
H           83.32779    -15.69447   36.0238     
H           83.29       -10.1       28.33       
H           82.48189    -11.08573   27.1779     
H           81.7        -9.82       28.24       
C           78.71       -11.58      31.5        
C           79.7        -10.97      29.39       
C           78.51       -11.08      30.2        
C           93.25       -17.3       37.03       
S           91.59       -17.86      36.81       
C           93.49       -16.23      36.21       
C           92.31       -15.75      35.62       
C           91.2        -16.51      35.86       
N           91.97       -14.64      34.79       
C           90.62       -14.7       34.67       
C           90.16       -15.89      35.26       
C           92.88       -13.88      34.0        
H           92.65       -12.87      34.01       
H           93.82       -13.85      34.52       
H           92.92204    -14.30736   32.99815    
H           89.81       -13.07      33.44       
H           94.42       -15.67      36.15       
C           89.62       -14.0       33.95       
S           88.46       -16.12      34.99       
C           88.4        -14.67      33.95       
C           99.53       -22.09      44.98       
C           100.06      -21.39      43.88       
C           98.18       -22.02      45.25       
C           97.33       -21.35      44.27       
C           97.89       -20.64      43.14       
C           99.26       -20.71      42.96       
N           95.95       -21.25      44.26       
C           95.6        -20.46      43.17       
C           96.8        -20.04      42.34       
O           94.41       -20.37      42.83       
C           94.97       -21.57      45.29       
C           96.76       -19.18      41.21       
C           95.75       -18.91      40.22       
C           96.2        -17.91      39.32       
N           97.54       -17.51      39.69       
C           97.92       -18.33      40.76       
C           94.39       -19.29      40.04       
O           99.03       -18.21      41.22       
C           98.34       -16.32      39.19       
H           99.74       -20.09      42.2        
H           97.78       -22.68      46.04       
H           101.12      -21.29      43.8        
H           95.72       -16.45      37.77       
H           93.96       -20.04      40.69       
H           92.64       -19.14      38.86       
H           94.05       -21.11      45.19       
H           95.16       -21.21      46.34       
H           94.85955    -22.65384   45.32452    
H           99.34       -16.45      39.45       
H           98.36151    -16.31283   38.10024    
H           97.93       -15.47      39.67       
C           93.61       -18.72      39.07       
C           95.37       -17.32      38.39       
C           94.1        -17.82      38.11       
C           103.83      -25.89      50.13       
S           102.18      -26.2       49.7        
C           104.26      -24.64      49.73       
C           103.37      -24.1       48.78       
C           102.14      -24.77      48.67       
N           103.49      -23.06      47.86       
C           102.3       -22.95      47.25       
C           101.43      -23.94      47.78       
C           104.77      -22.56      47.29       
H           105.6       -23.1       47.66       
H           104.84      -22.69      46.18       
H           104.86943   -21.48051   47.40363    
H           102.18      -21.29      45.75       
H           105.24      -24.28      49.96       
C           101.68      -22.11      46.33       
S           99.86       -23.82      47.1        
C           100.45      -22.58      46.04       
C           109.0       -34.13      55.4        
C           109.8       -33.19      54.76       
C           107.66      -33.86      55.7        
C           107.06      -32.68      55.26       
C           107.81      -31.76      54.51       
C           109.24      -31.97      54.3        
N           105.79      -32.31      55.46       
C           105.49      -31.25      54.72       
C           106.83      -30.74      54.06       
O           104.43      -30.72      54.75       
C           104.89      -32.93      56.39       
C           106.88      -29.59      53.35       
C           105.86      -28.76      52.65       
C           106.55      -27.69      52.04       
N           107.9       -27.76      52.32       
C           108.14      -28.85      53.04       
C           104.49      -28.91      52.27       
O           109.26      -29.08      53.41       
C           108.88      -26.75      52.15       
H           109.85      -31.34      53.73       
H           106.99      -34.58      56.21       
H           110.79      -33.57      54.52       
H           106.46      -25.91      50.85       
H           104.01      -29.79      52.63       
H           102.75      -27.95      51.31       
H           104.34      -32.11      56.78       
H           105.39      -33.34      57.2        
H           104.1706    -33.53656   55.83987    
H           109.47      -26.67      53.1        
H           109.59262   -26.89252   51.33762    
H           108.37      -25.82      52.0        
C           103.84      -27.93      51.47       
C           105.87      -26.69      51.26       
C           104.53      -26.84      51.01       
C           110.98      -41.41      57.67       
S           109.41      -40.52      57.56       
C           111.99      -40.49      57.54       
C           111.63      -39.18      57.15       
C           110.22      -39.08      57.1        
N           112.12      -37.96      56.68       
C           111.11      -37.11      56.39       
C           109.91      -37.74      56.67       
C           113.55      -37.61      56.4        
H           113.67      -36.44      56.32       
H           113.87      -37.96      55.47       
H           114.17549   -37.97834   57.21313    
H           111.77      -35.09      55.71       
H           113.04      -40.65      57.81       
C           110.94      -35.77      55.97       
S           108.51      -36.68      56.45       
C           109.6       -35.45      55.72       
C           111.15      -51.6       62.1        
C           112.31      -50.89      61.99       
C           109.92      -51.06      61.69       
C           109.94      -49.8       61.11       
C           111.11      -49.01      60.9        
C           112.32      -49.64      61.37       
N           108.82      -49.04      60.72       
C           109.24      -47.89      60.04       
C           110.75      -47.8       60.11       
O           108.38      -47.33      59.37       
C           107.48      -49.49      60.75       
C           111.44      -46.8       59.4        
C           110.97      -45.48      58.9        
C           112.15      -44.83      58.36       
N           113.23      -45.69      58.42       
C           112.88      -46.91      59.0        
C           109.81      -44.72      58.91       
O           113.65      -47.88      59.1        
C           114.61      -45.42      58.0        
H           113.22      -49.11      61.19       
H           109.01      -51.66      61.78       
H           113.29      -51.26      62.36       
H           113.18      -42.93      57.86       
H           108.95      -45.23      59.36       
H           108.86      -42.79      58.43       
H           107.45      -50.6       60.51       
H           106.91      -49.05      59.93       
H           106.99276   -49.28522   61.70329    
H           114.93      -44.41      58.36       
H           114.71627   -45.46251   56.91603    
H           115.29      -46.15      58.42       
C           109.81      -43.4       58.48       
C           112.21      -43.5       58.09       
C           110.98      -42.82      58.05       
C           110.13      -58.82      64.94       
S           109.02      -57.53      64.57       
C           111.47      -58.45      64.65       
C           111.58      -57.09      64.16       
C           110.31      -56.42      64.14       
N           112.55      -56.2       63.66       
C           111.92      -54.94      63.44       
C           110.56      -55.11      63.72       
C           113.87      -56.56      63.17       
H           114.24      -55.59      62.73       
H           113.92      -57.37      62.43       
H           114.6574    -56.81085   63.88075    
H           113.32      -53.42      62.65       
H           112.34      -59.08      64.75       
C           112.32      -53.68      63.0        
S           109.68      -53.69      63.29       
C           111.18      -52.91      62.8        
C           106.55      -67.63      70.89       
C           107.86      -67.57      70.57       
C           105.64      -66.71      70.56       
C           106.08      -65.55      69.96       
C           107.47      -65.43      69.62       
C           108.34      -66.43      69.96       
N           105.43      -64.34      69.74       
C           106.2       -63.52      68.95       
C           107.62      -64.16      68.81       
O           105.69      -62.52      68.4        
C           104.33      -63.85      70.54       
C           108.64      -63.63      67.97       
C           108.67      -62.34      67.16       
C           109.95      -62.31      66.52       
N           110.7       -63.45      66.8        
C           109.99      -64.33      67.61       
C           107.88      -61.21      66.84       
O           110.39      -65.46      67.93       
C           111.79      -63.87      65.92       
H           109.36      -66.37      69.76       
H           104.61      -66.85      70.77       
H           108.55      -68.38      70.8        
H           111.42      -61.18      65.33       
H           106.85      -61.06      67.09       
H           107.72      -59.27      65.92       
H           103.4       -63.59      70.02       
H           104.12      -64.58      71.31       
H           104.63571   -62.94677   71.06804    
H           111.69      -63.45      64.96       
H           112.71782   -63.51687   66.37006    
H           111.75      -64.96      65.68       
C           108.33      -60.15      66.11       
C           110.37      -61.19      65.75       
C           109.6       -60.06      65.54       
C           103.78      -74.68      72.41       
S           103.22      -73.55      71.25       
C           104.8       -74.22      73.22       
C           105.09      -72.92      72.84       
C           104.37      -72.34      71.83       
N           106.02      -72.03      73.32       
C           105.94      -70.9       72.53       
C           104.89      -70.97      71.63       
C           106.87      -72.19      74.51       
H           107.7       -71.54      74.5        
H           107.28      -73.2       74.59       
H           106.23088   -72.01957   75.37636    
H           107.64      -69.44      72.89       
H           105.26      -74.88      73.91       
C           106.67      -69.67      72.41       
S           104.69      -69.51      70.79       
C           106.11      -68.87      71.43       
C           98.0        -84.18      74.18       
C           98.16       -83.65      72.92       
C           98.59       -83.49      75.25       
C           99.29       -82.28      75.05       
C           99.36       -81.7       73.73       
C           98.83       -82.5       72.72       
N           99.98       -81.48      75.94       
C           100.51      -80.36      75.29       
C           100.17      -80.42      73.8        
O           101.01      -79.44      75.96       
C           100.3       -81.79      77.29       
C           100.52      -79.38      72.97       
C           101.42      -78.2       73.05       
C           101.26      -77.44      71.83       
N           100.33      -78.05      70.96       
C           99.88       -79.17      71.63       
C           102.37      -77.72      73.99       
O           99.03       -79.94      71.07       
C           99.67       -77.61      69.76       
H           99.09       -82.26      71.65       
H           98.62       -83.99      76.22       
H           97.84       -84.22      72.05       
H           101.9       -75.8       70.66       
H           102.65      -78.24      74.93       
H           103.76      -76.28      74.46       
H           100.12      -80.89      77.85       
H           99.67       -82.61      77.68       
H           101.32782   -82.14442   77.36797    
H           99.39       -76.58      69.78       
H           100.23645   -77.76775   68.8422     
H           98.77       -78.16      69.78       
C           103.14      -76.68      73.68       
C           102.1       -76.39      71.56       
C           103.08      -76.01      72.47       
C           94.59       -91.12      74.75       
S           95.76       -90.47      73.62       
C           94.46       -90.29      75.83       
C           95.02       -89.0       75.62       
C           95.79       -89.0       74.51       
N           95.09       -87.75      76.25       
C           95.92       -86.94      75.48       
C           96.41       -87.71      74.48       
C           94.16       -87.27      77.29       
H           94.51       -86.29      77.74       
H           94.26       -87.96      78.1        
H           93.11994    -87.19925   76.97161    
H           96.26       -84.93      76.23       
H           93.68       -90.5       76.61       
C           96.44       -85.65      75.48       
S           97.35       -86.76      73.35       
C           97.29       -85.41      74.4        
H           28.33       33.69       0.83        
H           94.37       -92.21      74.78       
