512

C           39.94       40.09       2.35        
C           38.84       40.95       2.64        
C           40.1        39.67       1.0         
C           39.18       40.18       0.08        
C           38.04       41.0        0.38        
C           37.89       41.37       1.73        
N           39.16       39.92       -1.26       
C           38.11       40.6        -1.91       
C           37.32       41.32       -0.89       
O           37.94       40.48       -3.16       
C           40.0        38.98       -1.87       
C           36.18       42.06       -1.16       
C           35.66       42.74       -2.35       
C           34.54       43.59       -2.01       
N           34.16       43.16       -0.64       
C           35.15       42.32       -0.14       
C           36.13       42.87       -3.7        
O           35.09       41.91       0.99        
C           33.07       43.69       0.15        
H           37.11       42.03       2.04        
H           40.91       39.03       0.8         
H           38.62       41.31       3.64        
H           33.04       45.11       -2.59       
H           37.08       42.46       -3.88       
H           36.14       44.11       -5.35       
H           40.82       38.63       -1.29       
H           39.4        38.1        -2.16       
H           40.48766    39.36576    -2.76525    
H           32.14       43.34       -0.25       
H           33.0839     44.76708    0.31677     
H           33.06       43.29       1.09        
C           35.58       43.8        -4.53       
C           33.96       44.47       -2.89       
C           34.49       44.6        -4.16       
C           44.12       36.58       7.95        
S           42.71       35.99       7.12        
C           44.32       37.93       7.79        
C           43.41       38.47       6.85        
C           42.54       37.5        6.31        
N           43.26       39.72       6.25        
C           42.17       39.55       5.39        
C           41.83       38.21       5.33        
C           43.78       41.03       6.6         
H           43.17       41.85       6.15        
H           44.73       41.27       6.21        
H           43.75871    41.22869    7.67153     
H           41.77       41.51       4.34        
H           45.09       38.47       8.25        
C           41.58       40.43       4.43        
S           40.69       37.94       4.01        
C           40.75       39.69       3.52        
C           50.82       29.42       13.45       
C           50.85       30.82       13.59       
C           49.8        28.96       12.58       
C           48.91       29.92       11.98       
C           48.89       31.32       12.27       
C           50.04       31.73       12.95       
N           47.87       29.6        11.14       
C           47.17       30.75       10.77       
C           47.78       31.95       11.38       
O           46.13       30.65       10.12       
C           47.35       28.26       10.86       
C           47.39       33.31       11.14       
C           46.46       33.93       10.22       
C           46.45       35.38       10.51       
N           47.34       35.61       11.53       
C           47.93       34.44       12.04       
C           45.8        33.54       9.05        
O           48.63       34.47       13.09       
C           47.47       36.87       12.19       
H           50.25       32.73       13.12       
H           49.73       27.98       12.26       
H           51.72       31.26       14.07       
H           45.54       37.29       10.2        
H           45.84       32.49       8.7         
H           44.57       34.19       7.38        
H           46.94       28.15       9.86        
H           48.2        27.57       10.91       
H           46.66003    27.87981    11.61333    
H           47.45       37.7        11.48       
H           46.72677    36.95494    12.98278    
H           48.47       36.83       12.71       
C           45.07       34.47       8.28        
C           45.66       36.27       9.79        
C           44.9        35.71       8.81        
C           56.75       24.42       15.3        
S           55.12       24.11       14.72       
C           56.86       25.76       15.6        
C           55.7        26.51       15.36       
C           54.6        25.73       14.9        
N           55.33       27.89       15.32       
C           54.03       27.98       14.82       
C           53.58       26.68       14.52       
C           56.21       29.0        15.6        
H           55.66       29.96       15.54       
H           57.01       29.17       14.9        
H           56.63569    28.89725    16.59816    
H           53.28       30.05       14.65       
H           57.82       26.2        15.86       
C           53.07       29.01       14.49       
S           51.93       26.79       13.84       
C           51.9        28.55       13.93       
C           63.76       16.11       17.77       
C           64.1        17.41       17.89       
C           62.54       15.8        17.17       
C           61.61       16.82       16.87       
C           61.91       18.18       17.18       
C           63.14       18.4        17.69       
N           60.38       16.7        16.13       
C           59.74       17.97       16.02       
C           60.69       18.93       16.78       
O           58.57       18.1        15.6        
C           59.84       15.52       15.43       
C           60.43       20.26       16.92       
C           59.42       21.18       16.28       
C           59.5        22.43       16.92       
N           60.5        22.39       17.94       
C           61.06       21.15       17.98       
C           58.53       21.15       15.15       
O           61.78       20.86       18.88       
C           60.69       23.31       18.99       
H           63.42       19.43       17.83       
H           62.17       14.79       17.19       
H           65.01       17.62       18.41       
H           58.77       24.49       17.18       
H           58.32       20.28       14.54       
H           56.93       22.09       14.09       
H           60.44       14.64       15.47       
H           58.88       15.18       15.81       
H           59.71736    15.77249    14.37676    
H           60.8        22.85       19.96       
H           61.5456     23.97083    18.85088    
H           59.82       23.92       19.02       
C           57.67       22.21       14.88       
C           58.71       23.55       16.57       
C           57.74       23.4        15.6        
C           67.48       9.89        20.55       
S           66.69       10.17       19.02       
C           67.54       10.97       21.31       
C           66.9        12.12       20.73       
C           66.42       11.83       19.47       
N           66.55       13.45       21.04       
C           65.91       13.98       19.99       
C           65.75       12.96       19.03       
C           66.94       14.21       22.27       
H           66.44       15.17       22.2        
H           67.96       14.51       22.19       
H           66.6286     13.75706    23.21126    
H           65.23       16.12       20.06       
H           68.0        10.91       22.3        
C           65.25       15.19       19.52       
S           64.81       13.53       17.67       
C           64.6        15.08       18.38       
C           72.79       0.16        22.63       
C           72.35       0.57        21.39       
C           72.42       0.99        23.68       
C           71.71       2.14        23.44       
C           71.39       2.63        22.18       
C           71.67       1.78        21.17       
N           71.24       3.02        24.42       
C           70.8        4.21        23.84       
C           70.81       3.98        22.32       
O           70.52       5.15        24.42       
C           71.23       2.79        25.87       
C           70.5        4.99        21.46       
C           69.71       6.24        21.51       
C           69.69       6.81        20.17       
N           70.57       6.1         19.37       
C           71.06       5.02        20.07       
C           68.89       6.88        22.45       
O           71.84       4.22        19.5        
C           70.6        6.11        17.93       
H           71.23       2.03        20.15       
H           72.7        0.74        24.78       
H           72.55       -0.09       20.5        
H           69.03       8.34        18.84       
H           68.73       6.55        23.46       
H           67.56       8.65        22.85       
H           72.05       2.18        26.27       
H           71.35       3.68        26.43       
H           70.26778    2.36948     26.16223    
H           71.54       5.82        17.47       
H           69.73743    5.6461      17.4516     
H           70.45       7.21        17.7        
C           68.23       8.12        22.15       
C           68.96       7.95        19.85       
C           68.27       8.67        20.86       
C           77.79       -5.63       24.53       
S           76.82       -4.6        25.53       
C           77.64       -5.32       23.16       
C           76.71       -4.28       23.02       
C           76.07       -3.8        24.22       
N           76.25       -3.58       21.92       
C           75.23       -2.69       22.44       
C           75.17       -2.84       23.84       
C           76.42       -3.68       20.46       
H           75.75       -3.0        19.96       
H           76.22       -4.65       20.0        
H           77.47312    -3.48472    20.25775    
H           74.2        -1.62       20.81       
H           78.19       -5.79       22.34       
C           74.3        -1.76       21.83       
S           74.03       -1.69       24.38       
C           73.63       -1.06       22.78       
C           86.39       -11.17      29.39       
C           86.59       -10.36      28.27       
C           85.09       -11.28      29.94       
C           84.06       -10.52      29.37       
C           84.26       -9.75       28.2        
C           85.57       -9.67       27.65       
N           82.73       -10.47      29.8        
C           82.03       -9.67       28.95       
C           82.9        -9.25       27.78       
O           80.87       -9.58       29.24       
C           82.19       -11.3       30.89       
C           82.37       -8.63       26.64       
C           80.96       -8.03       26.41       
C           80.98       -7.6        25.07       
N           82.18       -7.99       24.38       
C           83.04       -8.53       25.3        
C           79.78       -7.69       27.03       
O           84.16       -8.8        24.97       
C           82.45       -7.82       22.96       
H           85.76       -8.97       26.87       
H           84.9        -11.84      30.86       
H           87.67       -10.24      27.9        
H           79.94       -6.69       23.36       
H           79.61       -8.03       28.04       
H           78.05       -6.64       27.2        
H           82.64       -12.29      31.03       
H           81.16       -11.51      30.67       
H           82.27278    -10.68602   31.78682    
H           83.54       -7.76       22.67       
H           81.87885    -8.48016    22.30726    
H           82.03       -6.83       22.73       
C           78.82       -6.93       26.48       
C           79.9        -6.91       24.42       
C           78.79       -6.5        25.15       
C           91.54       -15.01      33.85       
S           89.93       -15.47      33.28       
C           91.96       -13.88      33.17       
C           90.95       -13.35      32.33       
C           89.75       -14.03      32.33       
N           90.85       -12.23      31.6        
C           89.6        -12.19      31.03       
C           88.86       -13.26      31.58       
C           92.02       -11.4       31.45       
H           92.87       -12.03      31.43       
H           92.07       -10.87      30.48       
H           92.0556     -10.75206   32.32579    
H           89.16       -10.32      29.77       
H           92.97       -13.48      33.25       
C           88.85       -11.32      30.22       
S           87.16       -13.14      31.17       
C           87.55       -11.8       30.13       
C           96.58       -21.28      41.78       
C           97.29       -20.29      41.22       
C           95.39       -21.69      41.2        
C           94.85       -20.95      40.17       
C           95.56       -19.93      39.5        
C           96.85       -19.68      40.09       
N           93.72       -21.3       39.49       
C           93.5        -20.38      38.46       
C           94.68       -19.39      38.45       
O           92.47       -20.38      37.84       
C           92.74       -22.37      39.73       
C           94.7        -18.31      37.53       
C           93.67       -17.56      36.75       
C           94.36       -16.55      36.0        
N           95.75       -16.63      36.24       
C           96.03       -17.6       37.2        
C           92.29       -17.58      36.62       
O           97.15       -17.95      37.63       
C           96.79       -15.86      35.62       
H           97.46       -18.88      39.82       
H           94.81       -22.52      41.57       
H           98.28       -20.06      41.53       
H           94.26       -15.02      34.45       
H           91.76       -18.37      37.14       
H           90.6        -16.93      35.41       
H           91.78       -22.06      39.44       
H           92.85       -22.58      40.78       
H           93.0308     -23.24948   39.1555     
H           96.55       -15.81      34.55       
H           96.89829    -14.85649   36.03151    
H           97.66       -16.47      35.8        
C           91.69       -16.78      35.55       
C           93.7        -15.75      35.02       
C           92.34       -15.88      34.75       
C           98.77       -25.79      47.74       
S           97.67       -26.18      46.4        
C           99.36       -24.53      47.62       
C           98.74       -23.8       46.51       
C           97.83       -24.54      45.83       
N           99.03       -22.63      45.88       
C           98.15       -22.57      44.82       
C           97.36       -23.7       44.76       
C           100.02      -21.57      46.28       
H           101.03      -22.03      46.16       
H           99.95       -20.67      45.66       
H           99.77189    -21.23229   47.28623    
H           98.75       -20.73      43.65       
H           100.21      -24.26      48.2        
C           98.04       -21.54      43.82       
S           96.33       -23.48      43.38       
C           97.12       -21.95      42.96       
C           102.72      -34.07      54.37       
C           103.34      -32.94      54.12       
C           101.39      -34.13      53.88       
C           100.85      -33.1       53.11       
C           101.48      -31.88      52.93       
C           102.83      -31.89      53.35       
N           99.58       -33.13      52.52       
C           99.34       -31.93      51.96       
C           100.55      -31.02      52.13       
O           98.34       -31.77      51.27       
C           98.62       -34.2       52.63       
C           100.64      -29.7       51.66       
C           99.9        -28.9       50.67       
C           100.54      -27.65      50.49       
N           101.56      -27.56      51.43       
C           101.75      -28.75      52.17       
C           98.82       -29.08      49.83       
O           102.59      -28.87      52.98       
C           102.28      -26.29      51.65       
H           103.48      -31.11      53.13       
H           100.79      -35.06      54.07       
H           104.36      -32.8       54.4        
H           100.69      -25.61      49.72       
H           98.19       -29.91      49.97       
H           97.46       -28.31      48.37       
H           99.08       -35.17      52.63       
H           97.85       -34.06      51.83       
H           98.09045    -34.15706   53.58175    
H           102.92      -26.47      52.56       
H           103.05181   -26.0899    50.90678    
H           101.43      -25.55      51.76       
C           98.36       -28.07      48.91       
C           100.15      -26.58      49.66       
C           99.12       -26.85      48.76       
C           105.16      -39.53      59.49       
S           104.43      -39.77      57.9        
C           105.41      -38.18      59.72       
C           104.99      -37.35      58.68       
C           104.35      -38.03      57.63       
N           105.12      -36.03      58.32       
C           104.38      -35.83      57.18       
C           103.91      -37.02      56.69       
C           105.45      -34.95      59.33       
H           105.73      -34.04      58.79       
H           106.32      -35.29      59.88       
H           104.65893   -34.76131   60.05575    
H           104.38      -33.72      56.65       
H           106.03      -37.86      60.55       
C           104.07      -34.74      56.35       
S           103.06      -36.72      55.2        
C           103.3       -35.02      55.29       
C           107.93      -47.79      66.6        
C           107.38      -46.58      67.13       
C           107.95      -48.0       65.19       
C           107.51      -46.96      64.42       
C           106.93      -45.73      64.87       
C           106.81      -45.6       66.28       
N           107.35      -47.08      63.01       
C           106.93      -45.88      62.42       
C           106.6       -44.92      63.6        
O           106.71      -45.88      61.22       
C           107.83      -48.12      62.06       
C           106.2       -43.58      63.44       
C           105.93      -42.75      62.25       
C           105.67      -41.43      62.63       
N           105.71      -41.33      64.03       
C           106.0       -42.59      64.56       
C           105.78      -43.01      60.85       
O           106.1       -42.67      65.75       
C           105.48      -40.16      64.79       
H           106.34      -44.73      66.7        
H           108.23      -48.92      64.74       
H           107.29      -46.52      68.23       
H           105.43      -39.38      62.06       
H           106.02      -43.95      60.42       
H           105.6       -42.16      58.96       
H           108.79      -48.58      62.31       
H           108.01      -47.63      61.1        
H           107.02066   -48.82995   61.88961    
H           104.58      -39.67      64.52       
H           106.34008   -39.49895   64.89662    
H           105.21      -40.41      65.79       
C           105.56      -41.96      59.97       
C           105.49      -40.36      61.74       
C           105.44      -40.59      60.41       
C           109.73      -53.52      71.61       
S           108.54      -52.25      71.81       
C           110.6       -53.17      70.71       
C           110.21      -52.08      69.88       
C           109.07      -51.41      70.35       
N           110.6       -51.57      68.65       
C           109.71      -50.58      68.38       
C           108.81      -50.33      69.44       
C           111.12      -52.45      67.54       
H           111.33      -51.78      66.73       
H           110.31      -53.1       67.21       
H           112.02276   -52.9437    67.89969    
H           109.99      -49.62      66.37       
H           111.47      -53.77      70.47       
C           109.41      -49.67      67.31       
S           107.68      -48.99      69.14       
C           108.34      -48.84      67.5        
C           108.15      -63.8       75.43       
C           109.31      -63.1       75.51       
C           107.09      -63.1       74.92       
C           107.2       -61.76      74.54       
C           108.44      -61.08      74.58       
C           109.47      -61.8       75.17       
N           106.3       -60.88      73.93       
C           106.85      -59.73      73.55       
C           108.28      -59.73      74.01       
O           106.29      -58.89      72.9        
C           104.89      -61.09      73.59       
C           109.19      -58.78      73.72       
C           109.05      -57.36      73.24       
C           110.34      -56.94      72.86       
N           111.29      -57.92      73.12       
C           110.68      -59.05      73.65       
C           108.03      -56.4       73.15       
O           111.27      -60.15      73.74       
C           112.51      -58.01      72.32       
H           110.33      -61.3       75.46       
H           106.18      -63.61      74.71       
H           110.17      -63.55      76.03       
H           111.64      -55.35      72.08       
H           107.01      -56.61      73.43       
H           107.41      -54.49      72.68       
H           104.44      -61.99      73.99       
H           104.34      -60.26      73.92       
H           104.69559   -61.17332   72.52072    
H           112.43      -57.47      71.43       
H           113.41045   -57.80907   72.90045    
H           112.6       -59.09      72.08       
C           108.3       -55.15      72.64       
C           110.63      -55.65      72.32       
C           109.58      -54.75      72.26       
C           106.17      -71.16      77.1        
S           105.26      -69.82      76.41       
C           107.46      -70.76      77.26       
C           107.77      -69.45      76.81       
C           106.65      -68.79      76.39       
N           108.89      -68.61      76.92       
C           108.45      -67.43      76.42       
C           107.09      -67.46      76.05       
C           110.17      -68.9       77.54       
H           110.89      -68.08      77.28       
H           110.66      -69.79      77.05       
H           110.08428   -68.94286   78.62578    
H           110.0       -65.9       76.46       
H           108.2       -71.4       77.84       
C           108.95      -66.12      76.26       
S           106.45      -65.95      75.51       
C           108.04      -65.21      75.73       
C           101.71      -81.46      78.17       
C           101.16      -80.44      77.43       
C           103.01      -81.19      78.63       
C           103.49      -79.92      78.48       
C           102.82      -78.82      77.88       
C           101.61      -79.16      77.34       
N           104.75      -79.54      78.82       
C           104.92      -78.19      78.56       
C           103.68      -77.61      77.89       
O           105.97      -77.61      78.95       
C           105.86      -80.45      79.16       
C           103.41      -76.3       77.52       
C           104.31      -75.15      77.44       
C           103.58      -73.99      77.01       
N           102.29      -74.36      76.85       
C           102.07      -75.69      77.23       
C           105.7       -74.91      77.52       
O           100.92      -76.15      77.31       
C           101.28      -73.59      76.13       
H           101.04      -78.46      76.64       
H           103.48      -81.96      79.16       
H           100.3       -80.77      76.84       
H           103.58      -71.84      76.74       
H           106.32      -75.74      77.69       
H           107.33      -73.53      77.38       
H           106.44      -80.13      80.02       
H           105.45      -81.42      79.35       
H           106.62775   -80.54597   78.39225    
H           101.58      -72.57      76.08       
H           101.0594    -74.03119   75.158      
H           100.36      -73.64      76.75       
C           106.26      -73.67      77.38       
C           104.13      -72.71      77.02       
C           105.49      -72.54      77.21       
C           99.35       -88.74      79.12       
S           100.43      -87.72      80.09       
C           98.95       -88.08      78.04       
C           99.41       -86.76      77.96       
C           100.26      -86.42      79.0        
N           99.14       -85.66      77.19       
C           99.96       -84.68      77.7        
C           100.66      -85.1       78.82       
C           98.24       -85.7       76.05       
H           97.95       -84.7       75.78       
H           97.32       -86.2       76.33       
H           98.72806    -86.24384   75.24121    
H           99.83       -82.92      76.44       
H           98.26       -88.56      77.36       
C           100.27      -83.37      77.32       
S           101.66      -83.88      79.46       
C           101.23      -82.77      78.17       
H           34.0        45.34       -4.8        
H           98.94       -89.71      79.44       
