512

C           39.13       33.75       3.82        
C           37.81       34.1        3.58        
C           40.18       34.27       3.09        
C           39.83       35.18       2.01        
C           38.45       35.63       1.83        
C           37.45       35.04       2.64        
N           40.72       35.8        1.15        
C           40.06       36.71       0.36        
C           38.52       36.62       0.7         
O           40.59       37.17       -0.67       
C           42.14       35.4        0.85        
C           37.57       37.36       -0.05       
C           37.69       38.43       -1.02       
C           36.43       38.78       -1.56       
N           35.49       37.99       -0.96       
C           36.08       37.02       -0.14       
C           38.76       39.24       -1.4        
O           35.47       36.04       0.36        
C           34.06       38.16       -1.25       
H           36.43       35.19       2.46        
H           41.22       34.03       3.33        
H           37.04       33.58       4.1         
H           35.3        40.04       -2.66       
H           39.72       39.16       -0.96       
H           39.41       40.98       -2.54       
H           42.36       34.51       1.35        
H           42.18       35.27       -0.23       
H           42.83758    36.15632    1.2098      
H           33.94       38.16       -2.37       
H           33.66684    39.01653    -0.70238    
H           33.5        37.3        -0.86       
C           38.58       40.36       -2.27       
C           36.25       39.89       -2.29       
C           37.32       40.66       -2.77       
C           41.82       29.23       9.65        
S           42.68       30.2        8.41        
C           40.49       29.09       9.42        
C           40.07       29.85       8.23        
C           41.14       30.56       7.6         
N           38.92       30.16       7.54        
C           39.3        31.17       6.59        
C           40.65       31.39       6.61        
C           37.78       29.27       7.33        
H           37.22       29.71       6.54        
H           37.09       29.27       8.22        
H           38.06909    28.24054    7.11847     
H           37.58       32.02       5.78        
H           39.88       28.53       10.12       
C           38.63       31.99       5.65        
S           41.08       32.56       5.39        
C           39.41       32.81       4.92        
C           47.84       25.68       18.31       
C           46.43       25.72       18.36       
C           48.57       26.3        17.29       
C           47.83       26.92       16.25       
C           46.4        26.99       16.28       
C           45.72       26.3        17.34       
N           48.39       27.59       15.17       
C           47.34       28.01       14.34       
C           45.95       27.7        15.0        
O           47.65       28.59       13.29       
C           49.74       27.52       14.74       
C           44.72       28.02       14.47       
C           44.28       28.27       13.07       
C           42.9        28.53       13.16       
N           42.43       28.51       14.44       
C           43.4        28.14       15.28       
C           44.86       28.3        11.81       
O           43.27       27.99       16.49       
C           41.07       28.7        14.93       
H           44.65       26.12       17.22       
H           49.67       26.36       17.24       
H           45.87       25.04       19.0        
H           41.09       29.07       12.13       
H           45.89       28.01       11.63       
H           44.55       28.7        9.77        
H           50.02       28.58       14.41       
H           50.43       27.29       15.46       
H           49.85578    26.77083    13.95678    
H           40.52       29.52       14.36       
H           40.52398    27.75884    14.86534    
H           41.17       29.06       15.95       
C           44.1        28.56       10.72       
C           42.09       28.73       12.07       
C           42.67       28.81       10.81       
C           52.19       21.0        22.42       
S           52.51       21.78       20.89       
C           51.12       21.48       23.11       
C           50.37       22.37       22.33       
C           51.08       22.72       21.17       
N           49.23       23.18       22.52       
C           49.05       23.8        21.27       
C           50.23       23.57       20.57       
C           48.49       23.49       23.8        
H           47.64       24.14       23.6        
H           49.22       23.96       24.45       
H           47.96064    22.5958     24.12906    
H           47.15       24.91       21.08       
H           50.8        21.02       24.05       
C           48.08       24.59       20.63       
S           50.14       24.48       19.11       
C           48.54       25.02       19.41       
C           59.15       12.12       23.81       
C           58.08       12.18       24.63       
C           59.3        13.05       22.79       
C           58.38       14.03       22.57       
C           57.18       14.15       23.39       
C           57.12       13.18       24.45       
N           58.4        15.07       21.62       
C           57.26       15.85       21.78       
C           56.46       15.42       23.01       
O           57.18       16.84       21.14       
C           59.43       15.44       20.68       
C           55.29       16.14       23.38       
C           54.75       17.52       23.09       
C           53.49       17.7        23.78       
N           53.23       16.55       24.51       
C           54.31       15.68       24.43       
C           55.12       18.66       22.35       
O           54.32       14.66       25.09       
C           52.29       16.38       25.65       
H           56.25       13.2        25.03       
H           60.05       13.05       22.08       
H           57.77       11.34       25.18       
H           51.73       18.89       24.23       
H           56.04       18.79       21.93       
H           54.65       20.52       21.53       
H           59.93       16.38       20.97       
H           60.28       14.77       20.65       
H           59.09522    15.52183    19.64592    
H           52.22       15.31       25.97       
H           52.5367     17.05157    26.47233    
H           51.26       16.62       25.28       
C           54.25       19.71       22.15       
C           52.68       18.79       23.66       
C           53.01       19.78       22.67       
C           65.31       7.44        23.31       
S           64.93       8.95        22.46       
C           64.29       6.96        24.01       
C           63.2        7.85        24.01       
C           63.41       9.0         23.24       
N           61.91       7.88        24.62       
C           61.35       9.16        24.32       
C           62.27       9.87        23.53       
C           61.19       6.85        25.29       
H           60.07       6.9         25.29       
H           61.49       6.81        26.26       
H           61.39884    5.85621     24.89393    
H           59.25       9.53        25.09       
H           64.38       6.1         24.68       
C           60.16       9.88        24.55       
S           61.76       11.51       23.41       
C           60.2        11.19       24.03       
C           75.42       2.53        21.43       
C           75.32       3.82        21.79       
C           74.26       1.84        21.09       
C           73.03       2.51        21.26       
C           72.84       3.81        21.83       
C           74.1        4.46        22.06       
N           71.83       1.9         21.09       
C           70.82       2.7         21.63       
C           71.4        4.08        21.95       
O           69.59       2.39        21.68       
C           71.71       0.49        20.78       
C           70.63       5.23        22.3        
C           69.15       5.56        22.37       
C           69.05       6.85        22.92       
N           70.3        7.41        23.03       
C           71.32       6.59        22.59       
C           67.9        4.96        22.16       
O           72.53       7.05        22.61       
C           70.63       8.63        23.62       
H           74.17       5.57        22.28       
H           74.32       0.76        20.77       
H           76.23       4.42        22.03       
H           67.87       8.47        23.69       
H           67.79       3.97        21.81       
H           65.82       5.03        22.36       
H           72.46       0.08        20.2        
H           71.46       -0.04       21.68       
H           70.87058    0.32638     20.1042     
H           71.56       8.45        24.15       
H           70.83079    9.42597     22.90291    
H           69.78       8.82        24.3        
C           66.71       5.58        22.48       
C           67.83       7.45        23.33       
C           66.65       6.82        23.11       
C           81.86       -1.42       23.61       
S           81.26       0.15        24.08       
C           81.21       -1.88       22.49       
C           80.17       -1.01       22.05       
C           80.03       0.14        22.86       
N           79.1        -1.04       21.15       
C           78.37       0.11        21.26       
C           78.91       0.87        22.31       
C           78.68       -2.12       20.34       
H           77.86       -1.79       19.66       
H           78.34       -2.95       20.91       
H           79.42869    -2.37889    19.59131    
H           76.44       0.12        20.1        
H           81.49       -2.86       22.06       
C           77.09       0.62        20.83       
S           77.96       2.33        22.58       
C           76.72       1.83        21.48       
C           88.48       -6.26       31.19       
C           88.79       -5.0        30.71       
C           87.58       -7.01       30.42       
C           86.99       -6.41       29.36       
C           87.19       -5.05       28.95       
C           88.22       -4.4        29.64       
N           86.14       -6.99       28.47       
C           85.56       -6.09       27.6        
C           86.22       -4.75       27.83       
O           84.61       -6.44       26.83       
C           86.08       -8.4        28.23       
C           85.81       -3.55       27.13       
C           84.81       -3.2        26.04       
C           84.71       -1.79       25.95       
N           85.52       -1.22       26.91       
C           86.19       -2.2        27.67       
C           83.98       -3.94       25.16       
O           86.77       -1.88       28.69       
C           85.68       0.18        27.24       
H           88.49       -3.38       29.38       
H           87.32       -8.05       30.64       
H           89.56       -4.37       31.14       
H           83.75       -0.07       25.15       
H           83.92       -5.01       25.18       
H           82.32       -3.86       23.8        
H           87.03       -8.83       28.61       
H           86.07       -8.66       27.17       
H           85.19666    -8.79893    28.72866    
H           85.85       0.22        28.29       
H           86.44093    0.67021     26.63272    
H           84.64       0.49        27.01       
C           83.07       -3.27       24.37       
C           83.89       -1.14       25.08       
C           83.01       -1.93       24.34       
C           90.5        -9.45       38.16       
S           89.82       -10.29      36.74       
C           90.62       -8.09       37.95       
C           90.31       -7.75       36.64       
C           89.92       -8.82       35.82       
N           90.25       -6.58       35.85       
C           89.83       -6.89       34.61       
C           89.63       -8.24       34.52       
C           90.36       -5.26       36.42       
H           90.88       -5.2        37.37       
H           90.99       -4.63       35.77       
H           89.35381    -4.84871    36.50079    
H           89.57       -5.0        33.29       
H           90.77       -7.44       38.75       
C           89.52       -6.1        33.42       
S           88.93       -8.53       32.91       
C           89.11       -6.86       32.36       
C           95.2        -15.55      46.24       
C           95.61       -14.24      46.0        
C           94.1        -16.08      45.48       
C           93.46       -15.23      44.6        
C           93.82       -13.82      44.53       
C           94.91       -13.4       45.23       
N           92.38       -15.56      43.81       
C           91.87       -14.41      43.22       
C           92.88       -13.31      43.53       
O           90.87       -14.51      42.53       
C           91.71       -16.87      43.64       
C           92.63       -12.06      42.87       
C           91.83       -11.61      41.68       
C           92.0        -10.21      41.58       
N           92.81       -9.74       42.61       
C           93.28       -10.8       43.41       
C           91.11       -12.15      40.63       
O           93.99       -10.57      44.4        
C           92.75       -8.37       43.05       
H           95.32       -12.47      44.94       
H           93.74       -17.08      45.79       
H           96.49       -13.91      46.53       
H           91.65       -8.38       40.46       
H           90.95       -13.19      40.54       
H           90.17       -11.89      38.76       
H           90.66       -16.65      43.45       
H           91.74       -17.54      44.52       
H           92.09783    -17.40148   42.77097    
H           92.8        -8.4        44.14       
H           93.57132    -7.71573    42.75767    
H           91.8        -8.03       42.73       
C           90.65       -11.39      39.61       
C           91.5        -9.46       40.47       
C           90.95       -10.09      39.38       
C           98.9        -19.73      51.8        
S           97.2        -19.74      51.36       
C           99.57       -18.74      51.15       
C           98.81       -18.03      50.21       
C           97.47       -18.47      50.2        
N           98.97       -16.98      49.29       
C           97.74       -16.89      48.64       
C           96.8        -17.75      49.12       
C           99.98       -15.89      49.26       
H           100.92      -16.35      49.53       
H           100.2       -15.48      48.3        
H           99.68869    -15.16527   50.02026    
H           97.97       -15.61      46.82       
H           100.63      -18.49      51.39       
C           97.3        -16.19      47.45       
S           95.29       -17.56      48.28       
C           95.97       -16.33      47.18       
C           102.8       -27.14      59.38       
C           103.57      -26.1       58.92       
C           101.62      -27.38      58.72       
C           101.19      -26.49      57.73       
C           101.86      -25.34      57.31       
C           103.08      -25.19      57.93       
N           100.04      -26.49      56.96       
C           99.86       -25.4       56.22       
C           101.07      -24.53      56.33       
O           98.74       -25.21      55.67       
C           99.2        -27.71      56.85       
C           101.23      -23.34      55.67       
C           100.36      -22.55      54.73       
C           101.01      -21.3       54.47       
N           102.29      -21.29      55.13       
C           102.34      -22.36      56.02       
C           99.21       -22.86      54.0        
O           103.3       -22.41      56.79       
C           103.3       -20.23      55.13       
H           103.76      -24.38      57.7        
H           100.97      -28.15      59.06       
H           104.56      -25.97      59.36       
H           101.12      -19.47      53.32       
H           98.69       -23.75      53.98       
H           97.85       -22.04      52.49       
H           98.1        -27.42      56.66       
H           99.1        -28.18      57.79       
H           99.56291    -28.35207   56.04741    
H           103.73      -19.97      56.14       
H           104.04643   -20.32766   54.34171    
H           102.64      -19.39      54.82       
C           98.76       -21.91      53.09       
C           100.48      -20.36      53.54       
C           99.29       -20.7       52.86       
C           104.25      -32.08      65.24       
S           103.46      -32.36      63.72       
C           104.82      -30.84      65.22       
C           104.55      -30.02      64.17       
C           103.8       -30.71      63.16       
N           104.89      -28.78      63.73       
C           104.21      -28.58      62.52       
C           103.59      -29.77      62.18       
C           105.77      -27.89      64.42       
H           105.85      -26.93      63.92       
H           106.77      -28.36      64.43       
H           105.40271   -27.65874   65.41986    
H           104.53      -26.57      61.57       
H           105.44      -30.56      66.12       
C           104.11      -27.58      61.52       
S           102.68      -29.54      60.72       
C           103.25      -27.9       60.5        
C           105.98      -40.73      71.89       
C           106.65      -39.57      72.06       
C           105.0       -40.84      70.89       
C           104.65      -39.7       70.21       
C           105.22      -38.47      70.44       
C           106.28      -38.43      71.42       
N           103.69      -39.59      69.17       
C           103.58      -38.28      68.72       
C           104.63      -37.49      69.45       
O           102.76      -37.95      67.92       
C           103.15      -40.75      68.44       
C           104.86      -36.14      69.19       
C           104.56      -35.32      68.06       
C           105.17      -34.02      68.24       
N           105.73      -33.98      69.49       
C           105.59      -35.2       70.14       
C           103.91      -35.5       66.84       
O           106.06      -35.45      71.26       
C           106.2       -32.86      70.25       
H           106.92      -37.61      71.58       
H           104.42      -41.64      70.8        
H           107.43      -39.48      72.83       
H           105.54      -32.08      67.65       
H           103.47      -36.42      66.5        
H           103.29      -34.73      65.02       
H           103.83      -41.5       68.45       
H           102.99      -40.49      67.38       
H           102.16941   -41.00915   68.83924    
H           105.67      -31.94      70.12       
H           107.27527   -32.70933   70.15412    
H           106.0       -33.09      71.35       
C           103.76      -34.43      65.94       
C           105.09      -33.0       67.37       
C           104.38      -33.19      66.15       
C           107.64      -47.57      75.45       
S           106.2       -47.0       74.57       
C           108.51      -46.56      75.57       
C           108.13      -45.39      74.93       
C           106.91      -45.44      74.32       
N           108.69      -44.11      74.71       
C           107.77      -43.42      73.95       
C           106.71      -44.23      73.59       
C           109.91      -43.53      75.18       
H           109.84      -42.52      74.82       
H           110.84      -43.93      74.73       
H           109.91727   -43.53      76.26998    
H           108.29      -41.35      73.38       
H           109.38      -46.67      76.23       
C           107.66      -42.15      73.32       
S           105.56      -43.36      72.49       
C           106.46      -41.93      72.59       
C           108.28      -58.07      79.11       
C           109.2       -57.12      79.4        
C           107.17      -57.75      78.4        
C           107.04      -56.52      77.87       
C           107.99      -55.51      78.16       
C           109.1       -55.79      78.95       
N           105.93      -55.97      77.17       
C           106.24      -54.63      76.9        
C           107.49      -54.24      77.6        
O           105.47      -53.84      76.41       
C           104.66      -56.62      76.7        
C           107.9       -52.91      77.69       
C           107.64      -51.64      76.97       
C           108.39      -50.61      77.6        
N           109.11      -51.13      78.7        
C           108.65      -52.44      78.95       
C           106.86      -51.22      75.81       
O           109.08      -53.11      79.9        
C           109.98      -50.39      79.58       
H           109.82      -55.06      79.19       
H           106.46      -58.5       78.13       
H           110.08      -57.43      80.08       
H           109.03      -48.54      77.61       
H           106.28      -51.92      75.24       
H           106.34      -49.67      74.5        
H           104.36      -57.38      77.34       
H           103.91      -55.85      76.61       
H           104.79476   -56.9959    75.68578    
H           110.05      -50.85      80.59       
H           110.98211   -50.28263   79.16484    
H           109.53      -49.39      79.69       
C           106.91      -49.92      75.38       
C           108.38      -49.31      77.11       
C           107.55      -48.93      76.07       
C           109.0       -64.58      83.42       
S           109.62      -62.98      83.65       
C           108.22      -64.65      82.33       
C           108.15      -63.48      81.53       
C           108.91      -62.43      82.08       
N           107.62      -62.96      80.33       
C           107.97      -61.6       80.16       
C           108.82      -61.27      81.21       
C           107.11      -63.74      79.26       
H           106.89      -63.03      78.5        
H           106.41      -64.55      79.54       
H           107.91303   -64.29165   78.7712     
H           107.1       -60.57      78.5        
H           107.83      -65.61      81.99       
C           107.83      -60.49      79.32       
S           109.42      -59.65      81.12       
C           108.37      -59.33      79.75       
C           112.51      -72.84      90.42       
C           111.94      -73.15      89.22       
C           112.51      -71.51      90.75       
C           111.99      -70.55      89.92       
C           111.48      -70.83      88.59       
C           111.47      -72.22      88.29       
N           112.05      -69.17      90.11       
C           111.35      -68.52      89.09       
C           111.06      -69.57      88.04       
O           111.22      -67.32      89.05       
C           112.58      -68.49      91.25       
C           110.53      -69.12      86.8        
C           110.19      -67.83      86.08       
C           109.62      -68.04      84.76       
N           109.58      -69.42      84.57       
C           109.98      -70.11      85.71       
C           110.36      -66.4       86.43       
O           109.85      -71.3       85.66       
C           108.76      -69.99      83.47       
H           111.2       -72.59      87.33       
H           113.09      -71.29      91.72       
H           112.0       -74.16      88.93       
H           108.71      -67.33      83.0        
H           110.83      -66.03      87.31       
H           110.19      -64.37      85.8        
H           111.88      -67.66      91.52       
H           112.57      -69.22      92.07       
H           113.56655   -68.08418   91.0261     
H           107.83      -69.44      83.28       
H           109.23863   -69.94777   82.49162    
H           108.35      -71.03      83.7        
C           110.0       -65.38      85.52       
C           109.18      -67.04      83.97       
C           109.36      -65.66      84.27       
C           115.67      -77.24      96.05       
S           115.44      -75.54      95.86       
C           115.18      -77.91      94.92       
C           114.6       -77.07      93.9        
C           114.76      -75.76      94.3        
N           113.92      -77.14      92.67       
C           113.71      -75.87      92.23       
C           114.17      -75.0       93.23       
C           113.67      -78.38      91.96       
H           113.35      -78.16      90.98       
H           112.87      -78.9       92.42       
H           114.55467   -79.01402   92.01898    
H           112.69      -75.65      90.28       
H           115.15      -79.0       94.88       
C           113.06      -75.18      91.16       
S           113.93      -73.34      92.77       
C           113.09      -73.83      91.33       
H           37.05       41.65       -3.17       
H           116.25      -77.71      96.87       
