512

C           20.48       11.3        2.47        
C           20.19       9.91        2.45        
C           19.46       12.22       2.69        
C           18.17       11.66       2.89        
C           17.88       10.28       2.99        
C           18.93       9.41        2.69        
N           17.0        12.41       3.21        
C           15.91       11.53       3.31        
C           16.38       10.12       3.21        
O           14.76       11.99       3.36        
C           16.79       13.83       3.45        
C           15.51       9.03        3.34        
C           14.08       8.83        3.78        
C           13.72       7.5         3.58        
N           14.79       6.81        2.98        
C           15.88       7.7         2.83        
C           13.08       9.62        4.43        
O           16.88       7.36        2.15        
C           14.57       5.61        2.14        
H           18.79       8.38        2.58        
H           19.62       13.31       2.68        
H           20.99       9.2         2.44        
H           12.25       5.9         3.75        
H           13.25       10.62       4.62        
H           11.08       9.75        5.33        
H           17.67       14.3        3.03        
H           15.98       14.26       2.9         
H           16.7196     14.0905     4.50607     
H           13.57       5.43        1.8         
H           14.96014    4.69966     2.59517     
H           15.13       5.76        1.23        
C           11.81       9.08        4.87        
C           12.5        6.95        3.94        
C           11.56       7.68        4.65        
C           28.01       12.36       0.82        
S           27.14       10.97       1.39        
C           27.23       13.5        0.78        
C           25.88       13.27       1.25        
C           25.65       11.91       1.46        
N           24.66       13.96       1.28        
C           23.75       13.02       1.57        
C           24.31       11.78       1.79        
C           24.45       15.33       0.88        
H           23.4        15.49       0.95        
H           24.69       15.49       -0.13       
H           25.05888    16.04633    1.43157     
H           21.69       13.96       1.66        
H           27.64       14.37       0.41        
C           22.3        13.06       1.81        
S           23.12       10.67       2.32        
C           21.85       11.81       2.19        
C           39.07       11.47       -0.36       
C           38.23       10.42       0.13        
C           38.41       12.62       -0.81       
C           37.06       12.73       -0.95       
C           36.21       11.62       -0.49       
C           36.9        10.53       0.11        
N           36.33       13.82       -1.41       
C           35.0        13.51       -1.21       
C           34.83       12.1        -0.65       
O           34.11       14.28       -1.67       
C           36.79       14.96       -2.29       
C           33.6        11.51       -0.3        
C           32.21       11.98       -0.15       
C           31.39       10.81       0.02        
N           32.17       9.66        -0.06       
C           33.5        9.95        -0.31       
C           31.51       13.22       -0.16       
O           34.34       9.16        -0.64       
C           31.66       8.32        -0.16       
H           36.33       9.73        0.47        
H           38.98       13.54       -0.98       
H           38.63       9.54        0.61        
H           29.45       10.0        0.54        
H           32.06       14.11       -0.45       
H           29.77       14.27       0.31        
H           37.91       14.8        -2.31       
H           36.56       14.81       -3.29       
H           36.53031    15.96991    -1.9726     
H           31.98       7.79        -1.08       
H           31.74438    7.7434      0.76115     
H           30.57       8.37        -0.45       
C           30.21       13.31       0.25        
C           30.02       10.94       0.35        
C           29.41       12.19       0.5         
C           46.88       11.81       0.98        
S           45.84       12.93       0.12        
C           46.07       10.73       1.25        
C           44.67       10.81       0.91        
C           44.37       12.03       0.34        
N           43.6        9.97        1.03        
C           42.54       10.68       0.57        
C           43.0        11.96       0.1         
C           43.63       8.59        1.54        
H           42.66       8.17        1.84        
H           44.07       8.64        2.53        
H           44.1611     7.92794     0.85611     
H           40.65       9.44        0.42        
H           46.48       9.83        1.71        
C           41.12       10.38       0.4         
S           41.66       12.81       -0.43       
C           40.5        11.46       -0.12       
C           57.61       14.51       3.21        
C           57.05       13.28       3.7         
C           56.89       15.3        2.35        
C           55.61       14.97       1.99        
C           54.93       13.78       2.5         
C           55.69       12.98       3.41        
N           54.7        15.79       1.28        
C           53.51       15.1        1.08        
C           53.55       13.8        1.93        
O           52.64       15.59       0.35        
C           54.97       17.19       0.97        
C           52.51       12.86       2.02        
C           51.03       12.84       1.64        
C           50.57       11.54       1.88        
N           51.55       10.72       2.4         
C           52.71       11.39       2.38        
C           50.12       13.77       1.15        
O           53.69       10.82       2.68        
C           51.24       9.43        3.07        
H           55.22       12.16       3.97        
H           57.44       16.16       2.01        
H           57.56       12.62       4.32        
H           48.95       10.11       1.7         
H           50.48       14.75       0.91        
H           48.19       14.19       0.53        
H           55.86       17.58       1.44        
H           55.12       17.19       -0.09       
H           54.19521    17.90844    1.23766     
H           52.18       8.82        3.26        
H           50.76473    9.56776     4.04121     
H           50.5        8.78        2.54        
C           48.81       13.36       0.86        
C           49.25       11.18       1.59        
C           48.35       12.12       1.11        
C           65.22       16.59       3.9         
S           63.78       17.64       3.78        
C           64.91       15.3        3.59        
C           63.47       15.06       3.47        
C           62.75       16.25       3.45        
N           62.65       13.93       3.34        
C           61.31       14.39       3.32        
C           61.37       15.81       3.34        
C           63.09       12.52       3.4         
H           62.24       11.88       3.11        
H           63.37       12.22       4.38        
H           63.89885    12.22714    2.7306      
H           59.79       12.79       3.15        
H           65.61       14.48       3.67        
C           60.02       13.86       3.26        
S           59.74       16.41       3.39        
C           59.03       14.78       3.4         
C           75.2        21.5        5.58        
C           74.01       22.08       5.96        
C           75.14       20.29       4.95        
C           73.86       19.75       4.62        
C           72.63       20.24       5.15        
C           72.76       21.48       5.83        
N           73.57       18.62       3.89        
C           72.22       18.33       3.84        
C           71.48       19.33       4.67        
O           71.79       17.31       3.29        
C           74.47       17.77       3.24        
C           70.13       19.32       4.95        
C           68.97       18.4        4.64        
C           67.78       18.81       5.27        
N           68.06       19.99       6.01        
C           69.36       20.33       5.81        
C           68.8        17.29       3.83        
O           69.74       21.32       6.27        
C           67.05       20.92       6.49        
H           71.92       22.03       6.19        
H           76.01       19.75       4.64        
H           73.99       23.05       6.41        
H           65.69       18.56       5.58        
H           69.63       16.88       3.31        
H           67.54       15.9        2.7         
H           75.41       18.0        3.58        
H           74.18       16.74       3.49        
H           74.4287     17.83194    2.15255     
H           66.14       20.52       6.12        
H           66.92496    20.97884    7.5712      
H           67.28       21.87       6.0         
C           67.6        16.66       3.54        
C           66.56       18.28       5.03        
C           66.51       17.17       4.19        
C           82.46       23.45       7.66        
S           81.87       22.31       6.43        
C           81.41       24.08       8.27        
C           80.13       23.78       7.71        
C           80.21       22.76       6.72        
N           78.81       24.21       7.8         
C           78.04       23.3        7.12        
C           78.88       22.51       6.34        
C           78.2        25.53       8.26        
H           77.12       25.44       8.25        
H           78.44       26.33       7.69        
H           78.50765    25.70887    9.29027     
H           75.82       23.3        7.6         
H           81.57       24.81       9.08        
C           76.65       22.98       6.98        
S           77.93       21.41       5.42        
C           76.46       22.03       6.02        
C           93.28       24.0        9.75        
C           92.82       23.34       8.6         
C           92.33       24.65       10.6        
C           91.03       24.76       10.19       
C           90.56       24.1        9.04        
C           91.49       23.42       8.21        
N           89.99       25.46       10.85       
C           88.75       25.13       10.25       
C           89.09       24.25       8.98        
O           87.76       25.72       10.62       
C           90.0        25.99       12.2        
C           88.1        23.74       8.06        
C           86.61       23.78       8.22        
C           86.06       23.43       7.0         
N           87.07       23.03       6.12        
C           88.29       23.23       6.62        
C           85.73       23.97       9.32        
O           89.25       22.8        5.91        
C           86.94       22.51       4.77        
H           91.16       22.77       7.44        
H           92.65       24.93       11.58       
H           93.66       22.79       8.03        
H           84.29       22.98       5.89        
H           86.19       24.17       10.27       
H           83.66       24.08       9.91        
H           89.32       26.88       12.28       
H           90.9        26.51       12.35       
H           89.89401    25.14913    12.88542    
H           87.74       22.9        4.07        
H           86.66098    21.45669    4.7421      
H           86.12       23.11       4.46        
C           84.4        23.95       9.11        
C           84.71       23.4        6.8         
C           83.87       23.57       7.89        
C           100.58      22.8        12.62       
S           99.03       22.98       13.44       
C           100.44      23.17       11.27       
C           99.1        23.41       10.9        
C           98.18       23.36       11.99       
N           98.45       23.75       9.75        
C           97.08       23.63       10.06       
C           96.86       23.52       11.44       
C           98.99       23.73       8.37        
H           98.99       24.68       7.94        
H           100.02      23.37       8.33        
H           98.38351    23.03888    7.78466     
H           95.72       24.05       8.3         
H           101.24      23.07       10.55       
C           95.83       23.85       9.36        
S           95.13       23.54       11.88       
C           94.67       23.76       10.17       
C           110.27      18.75       16.89       
C           110.16      19.21       15.61       
C           109.12      18.87       17.67       
C           108.0       19.45       17.19       
C           107.79      19.82       15.84       
C           108.93      19.69       15.07       
N           106.91      19.89       17.88       
C           105.86      20.3        17.07       
C           106.36      20.26       15.66       
O           104.73      20.56       17.55       
C           107.06      20.46       19.23       
C           105.59      20.59       14.51       
C           104.2       21.13       14.3        
C           103.98      21.28       12.93       
N           105.09      20.78       12.22       
C           106.13      20.39       13.11       
C           103.18      21.6        15.09       
O           107.11      19.8        12.66       
C           105.37      20.93       10.79       
H           108.99      20.09       14.09       
H           109.1       18.6        18.72       
H           110.98      19.22       14.96       
H           102.65      21.87       11.43       
H           103.2       21.62       16.18       
H           101.29      22.62       15.39       
H           106.71      21.49       19.23       
H           108.09      20.44       19.56       
H           106.41428   19.91586    19.91925    
H           104.45      20.78       10.33       
H           105.74628   21.93341    10.59079    
H           106.06      20.2        10.41       
C           102.03      22.19       14.62       
C           102.83      21.79       12.44       
C           101.76      22.18       13.28       
C           116.73      15.94       20.22       
S           115.17      16.51       20.92       
C           116.73      16.06       18.86       
C           115.53      16.61       18.3        
C           114.68      16.97       19.35       
N           114.95      16.91       17.1        
C           113.72      17.49       17.37       
C           113.45      17.42       18.71       
C           115.53      16.62       15.78       
H           115.43      17.45       15.04       
H           116.64      16.55       15.82       
H           115.18598   15.65245    15.41448    
H           112.71      17.99       15.56       
H           117.53      15.6        18.23       
C           112.64      17.84       16.61       
S           111.86      17.96       19.12       
C           111.58      18.22       17.35       
C           124.23      9.59        25.85       
C           122.87      9.52        26.17       
C           124.62      10.46       24.86       
C           123.72      11.21       24.14       
C           122.3       11.13       24.41       
C           121.85      10.18       25.41       
N           123.95      12.36       23.36       
C           122.78      12.98       22.98       
C           121.63      12.23       23.58       
O           122.86      13.93       22.25       
C           125.23      12.91       23.13       
C           120.29      12.63       23.34       
C           119.53      13.62       22.47       
C           118.15      13.5        22.63       
N           117.95      12.46       23.53       
C           119.11      11.87       23.94       
C           119.94      14.62       21.55       
O           119.01      10.85       24.52       
C           116.69      11.93       23.93       
H           120.82      10.21       25.71       
H           125.64      10.53       24.65       
H           122.55      8.83        26.96       
H           116.06      14.16       22.1        
H           120.93      14.79       21.39       
H           119.41      15.96       20.12       
H           125.97      12.37       23.65       
H           125.36      13.98       23.42       
H           125.60493   12.81096    22.11132    
H           116.7       10.85       23.95       
H           116.2077    12.39038    24.79229    
H           116.04      12.2        23.17       
C           119.02      15.2        20.74       
C           117.17      14.25       21.97       
C           117.68      15.07       20.97       
C           127.84      4.14        29.79       
S           126.58      5.26        30.37       
C           128.4       4.59        28.65       
C           127.79      5.75        28.13       
C           126.76      6.22        28.95       
N           127.93      6.51        27.0        
C           126.9       7.35        27.0        
C           126.19      7.25        28.2        
C           128.85      6.28        25.96       
H           128.49      6.82        25.11       
H           128.93      5.24        25.64       
H           129.80149   6.67347     26.3177     
H           126.51      8.2         25.02       
H           129.27      4.09        28.23       
C           126.26      8.16        26.05       
S           124.88      8.34        28.29       
C           125.17      8.77        26.62       
C           126.37      -5.49       34.04       
C           126.32      -4.34       34.79       
C           127.26      -5.51       32.87       
C           128.01      -4.38       32.58       
C           127.88      -3.17       33.34       
C           127.04      -3.2        34.51       
N           128.85      -4.19       31.52       
C           129.17      -2.86       31.45       
C           128.6       -2.12       32.64       
O           129.94      -2.32       30.66       
C           129.35      -5.15       30.5        
C           128.64      -0.77       32.81       
C           128.78      0.42        31.81       
C           128.4       1.59        32.57       
N           128.21      1.27        33.9        
C           128.33      -0.12       34.12       
C           128.83      0.57        30.39       
O           128.39      -0.63       35.23       
C           128.0       2.15        35.01       
H           126.8       -2.41       35.1        
H           127.41      -6.43       32.29       
H           125.73      -4.31       35.69       
H           127.83      3.63        32.61       
H           128.84      -0.3        29.77       
H           128.47      1.71        28.75       
H           129.64      -4.81       29.53       
H           128.66      -6.0        30.22       
H           130.24149   -5.69325    30.81341    
H           127.16      2.88        34.88       
H           128.83971   2.82741     35.16524    
H           127.76      1.56        35.86       
C           128.53      1.78        29.82       
C           128.19      2.8         31.95       
C           128.18      2.9         30.56       
C           120.41      -10.4       33.63       
S           121.85      -10.42      32.67       
C           120.41      -9.53       34.67       
C           121.63      -8.76       34.64       
C           122.58      -9.17       33.68       
N           122.23      -7.88       35.53       
C           123.4       -7.54       34.95       
C           123.67      -8.36       33.83       
C           121.59      -7.38       36.72       
H           122.13      -6.52       37.14       
H           121.59      -8.07       37.55       
H           120.5594    -7.05568    36.57586    
H           124.13      -5.69       35.88       
H           119.62      -9.54       35.47       
C           124.33      -6.51       35.18       
S           125.21      -7.93       33.12       
C           125.36      -6.53       34.21       
C           112.69      -18.26      30.85       
C           113.95      -18.29      30.31       
C           112.43      -17.24      31.79       
C           113.35      -16.28      32.11       
C           114.71      -16.35      31.64       
C           114.97      -17.35      30.7        
N           113.16      -15.19      32.89       
C           114.31      -14.54      33.12       
C           115.44      -15.22      32.34       
O           114.4       -13.61      33.86       
C           111.87      -14.55      33.1        
C           116.74      -14.73      32.34       
C           117.41      -13.53      32.88       
C           118.79      -13.55      32.44       
N           119.11      -14.75      31.81       
C           117.91      -15.44      31.72       
C           117.11      -12.31      33.59       
O           117.92      -16.43      30.99       
C           120.32      -15.27      31.3        
H           115.97      -17.47      30.31       
H           111.44      -17.13      32.19       
H           114.14      -19.06      29.52       
H           120.76      -12.75      32.34       
H           116.14      -12.12      34.08       
H           117.86      -10.54      34.53       
H           111.8       -13.58      32.69       
H           111.1       -15.2       32.81       
H           111.58789   -14.36663   34.13677    
H           120.32      -16.34      31.34       
H           120.58405   -14.88464   30.31518    
H           121.12      -14.9       32.02       
C           118.14      -11.32      33.84       
C           119.71      -12.57      32.63       
C           119.39      -11.45      33.41       
C           106.42      -22.59      28.85       
S           106.63      -21.37      30.04       
C           107.56      -22.81      28.08       
C           108.6       -21.94      28.54       
C           108.29      -21.13      29.61       
N           109.95      -21.71      28.25       
C           110.39      -20.7       29.11       
C           109.4       -20.38      29.99       
C           110.72      -22.24      27.13       
H           111.66      -21.61      26.94       
H           110.08      -22.3       26.21       
H           110.91567   -23.3022    27.27675    
H           112.39      -20.18      28.65       
H           107.53      -23.42      27.21       
C           111.62      -20.03      29.3        
S           110.02      -19.3       31.23       
C           111.59      -19.15      30.38       
C           96.16       -27.2       27.89       
C           97.15       -27.45      26.98       
C           96.41       -26.24      28.86       
C           97.66       -25.67      29.03       
C           98.7        -25.95      28.07       
C           98.39       -26.85      27.05       
N           98.1        -24.72      29.99       
C           99.46       -24.48      29.84       
C           99.91       -25.13      28.52       
O           100.1       -23.79      30.62       
C           97.31       -24.06      30.99       
C           101.2       -24.97      28.02       
C           102.47      -24.41      28.54       
C           103.45      -24.39      27.47       
N           102.83      -24.86      26.31       
C           101.52      -25.19      26.58       
C           102.96      -23.9       29.76       
O           100.73      -25.59      25.72       
C           103.41      -24.72      24.98       
H           99.09       -27.12      26.3        
H           95.63       -25.97      29.58       
H           97.04       -28.14      26.26       
H           105.26      -23.77      26.6        
H           102.41      -23.91      30.66       
H           104.53      -22.85      30.71       
H           96.31       -24.38      30.98       
H           97.54       -24.47      32.01       
H           97.39977    -22.9759    31.05905    
H           103.8       -23.75      24.69       
H           103.98343   -25.62506   24.77964    
H           102.56      -24.88      24.29       
C           104.25      -23.26      29.8        
C           104.67      -23.82      27.51       
C           105.08      -23.21      28.68       
C           89.96       -31.27      25.6        
S           91.51       -31.74      26.18       
C           89.79       -29.89      25.82       
C           90.97       -29.17      26.34       
C           92.02       -30.13      26.49       
N           91.34       -27.96      26.77       
C           92.63       -28.01      27.14       
C           93.1        -29.35      26.93       
C           90.48       -26.79      26.65       
H           91.03       -25.87      26.87       
H           89.55       -27.01      27.26       
H           90.11402    -26.67739   25.62947    
H           93.5        -26.06      27.8        
H           88.86       -29.37      25.66       
C           93.64       -27.1       27.57       
S           94.82       -29.46      27.11       
C           94.83       -27.81      27.65       
H           10.52       7.36        4.74        
H           89.29       -31.91      25.02       
