512

C           39.94       24.71       1.49        
C           38.55       24.65       1.71        
C           40.41       25.78       0.64        
C           39.47       26.64       0.07        
C           38.05       26.56       0.31        
C           37.63       25.63       1.23        
N           39.77       27.73       -0.78       
C           38.6        28.34       -1.14       
C           37.41       27.64       -0.46       
O           38.62       29.32       -1.92       
C           41.03       28.22       -1.18       
C           36.11       28.02       -0.73       
C           35.46       28.88       -1.73       
C           34.07       28.97       -1.43       
N           33.8        28.3        -0.29       
C           34.97       27.67       0.24        
C           35.84       29.59       -2.88       
O           34.99       27.03       1.34        
C           32.57       28.11       0.33        
H           36.59       25.44       1.42        
H           41.43       25.88       0.3         
H           38.19       23.86       2.34        
H           32.26       30.02       -1.77       
H           36.82       29.53       -3.26       
H           35.35       30.83       -4.49       
H           41.03       29.28       -1.18       
H           41.84       27.96       -0.5        
H           41.21311    27.81715    -2.17613    
H           31.77       28.11       -0.39       
H           32.40022    28.75375    1.19305     
H           32.63       27.01       0.64        
C           34.95       30.31       -3.65       
C           33.24       29.87       -2.1        
C           33.66       30.58       -3.26       
C           45.97       21.1        5.06        
S           45.91       22.12       3.67        
C           44.73       20.81       5.5         
C           43.72       21.62       4.86        
C           44.14       22.33       3.78        
N           42.34       21.76       4.97        
C           41.95       22.57       3.92        
C           43.04       22.9        3.11        
C           41.47       21.22       5.99        
H           40.43       21.36       5.7         
H           41.55       21.77       6.88        
H           41.60768    20.14753    6.12768     
H           39.77       22.89       3.7         
H           44.55       20.19       6.36        
C           40.72       23.06       3.31        
S           42.66       23.99       1.83        
C           40.93       23.88       2.21        
C           53.89       13.54       7.8         
C           52.73       13.76       8.49        
C           54.04       14.31       6.6         
C           53.07       15.26       6.2         
C           51.9        15.5        6.96        
C           51.71       14.65       8.05        
N           53.15       16.12       5.06        
C           51.94       16.89       4.96        
C           51.09       16.61       6.27        
O           51.78       17.8        4.11        
C           54.29       16.17       4.19        
C           50.04       17.38       6.72        
C           49.23       18.48       6.07        
C           48.3        18.96       7.03        
N           48.52       18.31       8.26        
C           49.5        17.37       8.14        
C           49.18       19.16       4.78        
O           49.92       16.77       9.12        
C           47.79       18.38       9.51        
H           50.78       14.51       8.53        
H           54.9        14.25       6.0         
H           52.42       13.16       9.34        
H           46.6        20.09       7.58        
H           49.84       18.84       4.0         
H           47.97       20.39       3.51        
H           54.93       17.05       4.44        
H           54.88       15.29       4.26        
H           54.04196    16.19756    3.12895     
H           47.18       19.25       9.46        
H           47.11992    17.5204     9.52354     
H           48.56       18.37       10.28       
C           48.14       20.06       4.49        
C           47.27       19.85       6.75        
C           47.15       20.38       5.43        
C           59.68       8.4         8.07        
S           59.36       9.67        6.89        
C           58.73       8.42        9.08        
C           57.71       9.35        8.85        
C           57.9        10.17       7.75        
N           56.61       9.78        9.59        
C           56.13       10.86       8.92        
C           56.91       11.14       7.81        
C           55.89       8.87        10.44       
H           55.14       9.44        11.01       
H           56.54       8.44        11.12       
H           55.35894    8.09494     9.88741     
H           54.24       11.59       9.88        
H           58.77       7.8         9.95        
C           55.0        11.66       9.06        
S           56.35       12.56       6.99        
C           54.97       12.6        8.12        
C           67.84       0.82        7.15        
C           66.66       0.54        7.9         
C           67.92       2.01        6.43        
C           66.8        2.91        6.53        
C           65.65       2.69        7.34        
C           65.6        1.41        7.96        
N           66.78       4.24        5.99        
C           65.57       4.83        6.29        
C           64.84       3.9         7.26        
O           65.39       5.98        6.07        
C           67.98       4.94        5.42        
C           63.69       4.37        7.85        
C           62.81       5.47        7.68        
C           61.91       5.53        8.81        
N           62.11       4.49        9.73        
C           63.14       3.74        9.16        
C           62.62       6.44        6.76        
O           63.66       2.81        9.82        
C           61.21       3.98        10.74       
H           64.75       1.18        8.52        
H           68.87       2.3         5.95        
H           66.58       -0.38       8.44        
H           60.32       6.53        9.98        
H           63.09       6.44        5.79        
H           61.43       7.98        6.0         
H           68.86       4.29        5.2         
H           67.77       5.49        4.43        
H           68.30818    5.66057     6.16911     
H           61.21       2.89        11.07       
H           61.19523    4.59306     11.64113    
H           60.24       4.03        10.18       
C           61.6        7.36        6.88        
C           61.0        6.61        9.02        
C           60.81       7.47        7.98        
C           73.64       -4.18       8.54        
S           72.03       -3.99       9.38        
C           73.69       -3.6        7.32        
C           72.52       -2.8        7.1         
C           71.57       -2.88       8.13        
N           72.05       -1.97       6.09        
C           70.86       -1.38       6.63        
C           70.56       -1.91       7.86        
C           72.82       -1.42       4.97        
H           72.07       -0.92       4.41        
H           73.24       -2.17       4.23        
H           73.69845    -0.84865    5.26996     
H           70.22       0.58        5.62        
H           74.56       -3.59       6.73        
C           70.06       -0.21       6.31        
S           68.98       -1.45       8.45        
C           68.99       -0.09       7.25        
C           81.26       -8.35       15.22       
C           79.88       -8.49       15.47       
C           81.67       -8.06       13.95       
C           80.72       -7.84       12.93       
C           79.34       -7.82       13.19       
C           78.96       -8.16       14.51       
N           80.95       -7.54       11.58       
C           79.79       -7.16       10.96       
C           78.65       -7.33       11.99       
O           79.76       -6.77       9.78        
C           82.26       -7.25       11.01       
C           77.31       -7.18       11.76       
C           76.65       -6.25       10.83       
C           75.28       -6.52       10.96       
N           74.96       -7.47       11.96       
C           76.19       -7.92       12.48       
C           76.99       -5.17       10.02       
O           76.17       -8.81       13.33       
C           73.66       -7.93       12.31       
H           77.93       -8.2        14.72       
H           82.67       -7.92       13.75       
H           79.51       -8.56       16.5        
H           73.3        -6.09       10.24       
H           78.03       -4.92       9.87        
H           76.31       -3.67       8.56        
H           82.98       -7.81       11.6        
H           82.32       -7.67       9.95        
H           82.6314     -6.23391    11.14314    
H           73.64       -8.96       12.63       
H           73.18889    -7.39744    13.13615    
H           73.16       -7.81       11.34       
C           76.05       -4.49       9.28        
C           74.3        -5.8        10.22       
C           74.68       -4.79       9.36        
C           86.35       -10.06      20.92       
S           84.82       -10.8       20.46       
C           86.65       -9.01       20.1        
C           85.65       -8.85       19.03       
C           84.68       -9.8        19.04       
N           85.45       -7.86       18.03       
C           84.31       -8.32       17.4        
C           83.88       -9.52       17.91       
C           86.07       -6.55       17.92       
H           85.41       -6.11       17.15       
H           87.06       -6.59       17.56       
H           86.06282    -6.11199    18.91809    
H           83.67       -7.06       15.64       
H           87.56       -8.45       20.19       
C           83.51       -7.93       16.29       
S           82.33       -9.98       17.3        
C           82.34       -8.64       16.18       
C           91.99       -12.64      30.45       
C           92.36       -11.56      29.69       
C           91.03       -13.5       30.03       
C           90.28       -13.24      28.85       
C           90.62       -12.11      27.99       
C           91.7        -11.29      28.47       
N           89.23       -14.03      28.31       
C           88.86       -13.42      27.09       
C           89.61       -12.17      26.82       
O           87.93       -13.93      26.39       
C           88.93       -15.43      28.62       
C           89.37       -11.3       25.66       
C           88.5        -11.31      24.47       
C           88.6        -10.03      23.88       
N           89.58       -9.28       24.47       
C           90.0        -9.89       25.58       
C           87.44       -12.03      23.89       
O           90.82       -9.3        26.36       
C           90.44       -8.27       23.78       
H           92.02       -10.4       27.87       
H           90.92       -14.38      30.67       
H           93.07       -10.83      30.05       
H           88.21       -8.67       22.35       
H           87.13       -12.98      24.3        
H           85.94       -12.36      22.43       
H           89.75       -16.04      29.07       
H           88.66       -15.96      27.71       
H           88.00839    -15.45836   29.20132    
H           90.64       -8.75       22.78       
H           90.16547    -7.21642    23.83194    
H           91.45       -8.25       24.14       
C           86.71       -11.64      22.75       
C           87.95       -9.62       22.76       
C           87.03       -10.48      22.1        
C           95.52       -14.89      37.02       
S           94.26       -15.68      36.13       
C           95.7        -13.59      36.59       
C           94.8        -13.23      35.57       
C           94.02       -14.28      35.13       
N           94.6        -12.12      34.75       
C           93.84       -12.57      33.68       
C           93.44       -13.87      33.97       
C           95.32       -10.83      34.88       
H           96.35       -11.08      35.21       
H           95.38       -10.37      33.9        
H           94.84838    -10.1824    35.61911    
H           93.5        -11.02      32.21       
H           96.42       -12.96      37.04       
C           93.31       -12.04      32.51       
S           92.3        -14.36      32.7        
C           92.62       -12.95      31.74       
C           100.72      -20.32      45.45       
C           101.24      -19.17      44.78       
C           99.42       -20.71      45.17       
C           98.68       -20.07      44.19       
C           99.19       -18.92      43.52       
C           100.52      -18.5       43.81       
N           97.37       -20.37      43.78       
C           97.0        -19.4       42.86       
C           98.14       -18.38      42.62       
O           95.87       -19.45      42.49       
C           96.41       -21.22      44.57       
C           97.99       -17.28      41.73       
C           97.12       -16.88      40.56       
C           97.54       -15.57      40.1        
N           98.53       -15.06      40.9        
C           98.88       -15.98      41.87       
C           96.05       -17.37      39.84       
O           99.71       -15.74      42.69       
C           99.24       -13.88      40.69       
H           100.98      -17.82      43.13       
H           98.99       -21.61      45.62       
H           102.28      -18.85      44.89       
H           97.37       -13.96      38.64       
H           95.49       -18.31      40.16       
H           94.72       -17.2       38.21       
H           95.38       -20.83      44.54       
H           96.6        -21.07      45.64       
H           96.42415    -22.27439   44.29402    
H           99.13       -13.52      39.65       
H           99.0049     -13.10751   41.42218    
H           100.26      -14.05      40.78       
C           95.63       -16.81      38.64       
C           97.07       -14.98      38.9        
C           96.11       -15.58      38.16       
C           103.79      -24.48      51.15       
S           102.38      -24.74      50.07       
C           104.4       -23.3       50.87       
C           103.82      -22.65      49.8        
C           102.73      -23.28      49.26       
N           103.98      -21.45      49.08       
C           103.05      -21.39      48.1        
C           102.2       -22.51      48.19       
C           105.14      -20.56      49.33       
H           106.0       -21.21      49.39       
H           105.26      -19.9       48.47       
H           104.96881   -19.91631   50.19282    
H           103.21      -19.65      46.75       
H           105.3       -23.02      51.34       
C           102.71      -20.54      47.04       
S           100.9       -22.45      47.02       
C           101.59      -20.98      46.38       
C           104.84      -31.73      59.59       
C           105.94      -30.9       59.36       
C           103.91      -31.89      58.6        
C           103.89      -31.14      57.44       
C           104.94      -30.15      57.22       
C           105.9       -30.08      58.21       
N           102.97      -31.12      56.46       
C           103.3       -30.21      55.5        
C           104.59      -29.45      55.95       
O           102.43      -29.96      54.68       
C           101.58      -31.53      56.69       
C           105.1       -28.36      55.29       
C           104.64      -27.64      54.09       
C           105.44      -26.42      54.06       
N           106.52      -26.46      54.92       
C           106.41      -27.61      55.64       
C           103.63      -27.8       53.11       
O           107.29      -27.86      56.49       
C           107.59      -25.44      55.21       
H           106.73      -29.4       58.12       
H           103.18      -32.67      58.67       
H           106.75      -30.94      59.94       
H           105.67      -24.47      53.26       
H           103.06      -28.65      53.03       
H           102.64      -26.99      51.38       
H           100.92      -30.7       56.5        
H           101.36      -31.74      57.72       
H           101.26732   -32.36622   56.06465    
H           107.95      -25.51      56.29       
H           108.49392   -25.4883    54.60279    
H           107.2       -24.44      55.19       
C           103.46      -26.81      52.17       
C           105.12      -25.42      53.17       
C           104.09      -25.56      52.25       
C           105.07      -36.71      65.6        
S           104.18      -36.86      64.09       
C           105.62      -35.47      65.76       
C           105.41      -34.66      64.57       
C           104.7       -35.27      63.6        
N           105.8       -33.41      64.14       
C           105.32      -33.23      62.93       
C           104.7       -34.38      62.53       
C           106.54      -32.37      64.82       
H           106.44      -31.43      64.31       
H           107.64      -32.57      64.82       
H           106.05669   -32.15031   65.77197    
H           105.75      -31.26      62.04       
H           106.18      -35.15      66.62       
C           105.32      -32.21      61.97       
S           104.12      -34.19      60.85       
C           104.84      -32.61      60.73       
C           105.72      -45.89      71.87       
C           106.17      -44.67      72.23       
C           105.31      -46.0       70.59       
C           105.41      -44.86      69.73       
C           105.8       -43.59      70.14       
C           106.25      -43.52      71.46       
N           105.03      -44.81      68.38       
C           105.32      -43.57      67.83       
C           105.82      -42.68      68.99       
O           105.23      -43.38      66.64       
C           104.31      -45.72      67.66       
C           106.1       -41.31      68.91       
C           105.65      -40.29      67.94       
C           106.22      -39.06      68.26       
N           106.95      -39.16      69.46       
C           106.9       -40.5       69.84       
C           104.72      -40.23      66.92       
O           107.63      -40.81      70.78       
C           107.83      -38.09      69.97       
H           106.46      -42.55      71.81       
H           105.12      -46.99      70.21       
H           106.53      -44.51      73.27       
H           106.65      -37.09      67.78       
H           104.3       -41.15      66.59       
H           103.85      -39.11      65.36       
H           104.83      -46.67      67.76       
H           104.27      -45.54      66.6        
H           103.29087   -45.85733   68.0214     
H           107.29      -37.18      70.1        
H           108.71054   -37.94088   69.3451     
H           108.16      -38.37      70.99       
C           104.54      -39.06      66.2        
C           106.09      -37.91      67.5        
C           105.2       -37.88      66.41       
C           105.94      -52.78      75.54       
S           104.66      -51.95      74.73       
C           107.04      -51.98      75.65       
C           106.93      -50.66      75.12       
C           105.66      -50.55      74.46       
N           107.61      -49.46      75.0        
C           106.9       -48.72      74.02       
C           105.7       -49.31      73.74       
C           109.08      -49.19      75.02       
H           109.28      -48.14      74.99       
H           109.53      -49.52      74.05       
H           109.61223   -49.67321   75.83935    
H           107.82      -46.72      73.67       
H           107.98      -52.33      76.11       
C           107.0       -47.41      73.42       
S           104.67      -48.29      72.83       
C           105.92      -47.08      72.68       
C           104.68      -63.5       78.43       
C           105.86      -62.85      78.66       
C           103.59      -62.75      78.1        
C           103.8       -61.39      77.84       
C           105.04      -60.7       77.99       
C           106.08      -61.48      78.45       
N           102.76      -60.5       77.45       
C           103.3       -59.24      77.17       
C           104.74      -59.29      77.63       
O           102.62      -58.25      76.89       
C           101.35      -60.78      77.12       
C           105.46      -58.11      77.68       
C           105.38      -56.83      76.96       
C           106.28      -55.92      77.55       
N           106.82      -56.51      78.68       
C           106.5       -57.91      78.73       
C           104.58      -56.3       75.9        
O           107.05      -58.54      79.57       
C           108.02      -55.89      79.28       
H           107.04      -61.12      78.67       
H           102.64      -63.19      77.94       
H           106.73      -63.39      78.94       
H           107.34      -54.06      77.51       
H           103.87      -56.97      75.45       
H           104.14      -54.6       74.7        
H           100.91      -61.74      77.32       
H           100.56      -60.15      77.67       
H           101.22975   -60.73049   76.03778    
H           108.51      -55.39      78.59       
H           107.81342   -55.22752   80.12056    
H           108.68      -56.66      79.72       
C           104.73      -54.97      75.49       
C           106.56      -54.64      77.05       
C           105.74      -54.14      76.01       
C           104.48      -70.91      81.05       
S           105.78      -69.7       81.09       
C           103.32      -70.47      80.51       
C           103.52      -69.19      79.86       
C           104.81      -68.6       80.2        
N           102.7       -68.24      79.2        
C           103.5       -67.06      79.12       
C           104.71      -67.25      79.66       
C           101.31      -68.44      78.71       
H           101.16      -67.74      77.92       
H           100.52      -68.27      79.48       
H           101.16891   -69.44879   78.322      
H           102.44      -65.41      78.0        
H           102.38      -70.99      80.52       
C           103.32      -65.75      78.54       
S           105.72      -65.88      79.41       
C           104.42      -64.94      78.68       
C           107.14      -80.43      86.5        
C           105.99      -80.34      85.67       
C           107.72      -79.24      86.92       
C           107.29      -78.1       86.26       
C           106.2       -77.96      85.29       
C           105.55      -79.16      85.07       
N           107.67      -76.79      86.53       
C           107.04      -75.83      85.73       
C           106.02      -76.57      84.86       
O           107.1       -74.65      85.91       
C           108.75      -76.41      87.41       
C           105.24      -75.9       83.94       
C           105.23      -74.55      83.32       
C           104.11      -74.38      82.39       
N           103.37      -75.56      82.42       
C           103.98      -76.46      83.26       
C           106.02      -73.43      83.43       
O           103.47      -77.51      83.56       
C           101.97      -75.72      81.99       
H           104.64      -79.26      84.45       
H           108.47      -79.26      87.68       
H           105.49      -81.23      85.31       
H           103.07      -73.17      80.98       
H           106.91      -73.42      84.01       
H           106.43      -71.42      82.82       
H           108.66      -75.49      87.98       
H           108.9       -77.16      88.13       
H           109.65626   -76.36785   86.80583    
H           101.61      -74.75      81.55       
H           101.94879   -76.41279   81.14876    
H           101.45      -76.11      82.81       
C           105.8       -72.32      82.65       
C           103.86      -73.25      81.63       
C           104.72      -72.16      81.78       
C           108.03      -87.66      89.37       
S           106.82      -87.08      88.25       
C           108.76      -86.62      89.88       
C           108.54      -85.44      89.21       
C           107.55      -85.5       88.25       
N           109.16      -84.25      89.22       
C           108.43      -83.39      88.37       
C           107.44      -84.14      87.71       
C           110.13      -83.82      90.24       
H           110.42      -82.75      90.14       
H           111.02      -84.51      90.23       
H           109.68418   -83.92449   91.22916    
H           109.1       -81.32      88.38       
H           109.54      -86.75      90.64       
C           108.41      -82.05      87.93       
S           106.55      -83.11      86.59       
C           107.5       -81.76      87.01       
H           32.96       31.16       -3.83       
H           108.32      -88.73      89.39       
