512

C           49.1        24.41       42.93       
C           48.67       23.94       41.66       
C           49.56       25.71       43.06       
C           49.29       26.64       42.03       
C           48.64       26.26       40.82       
C           48.38       24.88       40.66       
N           49.65       27.97       41.97       
C           49.03       28.62       40.89       
C           48.4        27.49       40.03       
O           48.97       29.84       40.87       
C           50.51       28.74       42.92       
C           47.69       27.78       38.91       
C           47.56       28.95       38.07       
C           46.51       28.76       37.12       
N           46.04       27.49       37.23       
C           46.69       26.85       38.27       
C           48.08       30.23       38.04       
O           46.37       25.69       38.55       
C           45.09       26.83       36.52       
H           48.08       24.57       39.65       
H           49.99       26.13       43.98       
H           48.55       22.91       41.47       
H           45.18       29.49       35.62       
H           49.0        30.51       38.66       
H           48.09       32.17       37.21       
H           49.98       29.51       43.42       
H           50.77       28.08       43.73       
H           51.40433    29.09058    42.40486    
H           45.12       27.18       35.48       
H           44.09253    27.02949    36.9116     
H           45.28       25.75       36.66       
C           47.64       31.18       37.12       
C           46.01       29.71       36.33       
C           46.56       31.0        36.28       
C           51.84       19.62       48.2        
S           52.4        21.22       47.8        
C           50.68       19.21       47.68       
C           50.2        20.18       46.75       
C           51.01       21.28       46.71       
N           49.1        20.35       45.91       
C           49.26       21.59       45.29       
C           50.46       22.14       45.73       
C           48.12       19.37       45.53       
H           47.24       19.81       45.09       
H           47.86       18.81       46.41       
H           48.57157    18.76791    44.74154    
H           47.61       22.16       43.88       
H           50.31       18.24       47.86       
C           48.57       22.42       44.38       
S           50.77       23.66       44.88       
C           49.31       23.42       43.96       
C           58.94       13.87       54.7        
C           57.59       13.71       54.81       
C           59.43       14.89       53.84       
C           58.5        15.6        53.1        
C           57.06       15.45       53.19       
C           56.65       14.52       54.17       
N           58.84       16.58       52.11       
C           57.66       16.96       51.5        
C           56.45       16.31       52.16       
O           57.83       17.76       50.56       
C           60.12       17.24       51.86       
C           55.08       16.52       51.71       
C           54.47       17.32       50.65       
C           53.07       17.23       50.76       
N           52.71       16.38       51.76       
C           53.84       15.85       52.4        
C           54.94       18.21       49.68       
O           53.83       14.92       53.24       
C           51.41       15.94       52.19       
H           55.61       14.29       54.32       
H           60.48       15.01       53.7        
H           57.19       12.94       55.43       
H           51.14       17.7        50.02       
H           56.01       18.36       49.5        
H           54.44       19.52       48.0        
H           60.94       16.71       52.53       
H           60.39       17.09       50.86       
H           60.08509    18.31536    52.03457    
H           50.67       16.73       51.97       
H           51.12274    14.97768    51.76629    
H           51.43       15.9        53.27       
C           54.03       18.89       48.83       
C           52.19       17.88       49.96       
C           52.71       18.77       49.0        
C           64.78       9.77        58.11       
S           64.79       11.14       57.1        
C           63.51       9.44        58.47       
C           62.51       10.29       57.86       
C           63.06       11.32       57.11       
N           61.15       10.42       57.8        
C           60.83       11.41       56.89       
C           62.03       12.03       56.5        
C           60.13       9.79        58.64       
H           59.14       9.76        58.23       
H           60.03       10.26       59.59       
H           60.37565    8.75684     58.88565    
H           58.72       11.81       56.69       
H           63.25       8.52        59.06       
C           59.7        12.01       56.39       
S           61.64       13.3        55.27       
C           59.95       13.01       55.4        
C           74.24       3.76        60.32       
C           73.01       3.5         60.97       
C           74.27       4.88        59.44       
C           73.15       5.62        59.21       
C           71.88       5.37        59.87       
C           71.89       4.3         60.77       
N           73.12       6.8         58.44       
C           71.76       7.21        58.4        
C           70.86       6.36        59.3        
O           71.42       8.14        57.67       
C           74.29       7.48        57.91       
C           69.51       6.6         59.53       
C           68.55       7.62        59.05       
C           67.26       7.39        59.64       
N           67.42       6.34        60.63       
C           68.7        5.8         60.56       
C           68.53       8.81        58.27       
O           69.0        4.79        61.25       
C           66.3        5.74        61.41       
H           71.05       3.93        61.34       
H           75.25       5.17        58.94       
H           72.83       2.76        61.72       
H           65.13       7.95        59.86       
H           69.45       9.21        57.86       
H           67.45       10.5        57.39       
H           75.33       7.12        58.26       
H           74.25       7.44        56.79       
H           74.3192     8.51658     58.24579    
H           65.99       4.78        61.1        
H           66.43594    5.78078     62.49072    
H           65.46       6.4         61.24       
C           67.37       9.56        57.95       
C           66.08       8.12        59.39       
C           66.1        9.15        58.44       
C           79.98       -0.92       62.66       
S           78.38       -0.57       63.29       
C           80.35       0.0         61.68       
C           79.25       0.9         61.41       
C           78.1        0.69        62.18       
N           79.03       2.04        60.64       
C           77.68       2.39        60.83       
C           77.14       1.52        61.72       
C           79.97       2.68        59.7        
H           79.6        3.7         59.61       
H           79.96       2.32        58.71       
H           80.99596    2.6318      60.06494    
H           76.92       4.12        59.51       
H           81.34       0.04        61.15       
C           76.72       3.36        60.29       
S           75.43       1.76        61.9        
C           75.46       3.11        60.77       
C           84.14       -10.56      66.43       
C           82.75       -10.36      66.32       
C           85.0        -9.54       66.05       
C           84.44       -8.48       65.35       
C           83.04       -8.24       65.17       
C           82.17       -9.24       65.75       
N           85.19       -7.53       64.74       
C           84.35       -6.54       64.23       
C           82.91       -6.93       64.52       
O           84.74       -5.58       63.61       
C           86.65       -7.6        64.68       
C           81.86       -6.15       64.13       
C           81.76       -4.64       63.83       
C           80.33       -4.5        63.56       
N           79.63       -5.69       63.51       
C           80.47       -6.7        63.99       
C           82.56       -3.48       63.8        
O           80.12       -7.86       64.02       
C           78.21       -5.9        63.28       
H           81.06       -9.2        65.78       
H           86.06       -9.7        66.05       
H           82.0        -11.03      66.75       
H           78.77       -3.19       63.1        
H           83.59       -3.49       64.08       
H           82.64       -1.45       63.47       
H           87.11       -8.26       65.35       
H           86.93       -8.07       63.76       
H           87.19138    -6.68856    64.93356    
H           78.05       -6.92       62.98       
H           77.61524    -5.59187    64.13989    
H           77.93       -5.31       62.45       
C           81.99       -2.31       63.45       
C           79.79       -3.24       63.3        
C           80.65       -2.14       63.07       
C           87.6        -15.89      70.71       
S           88.04       -14.24      70.19       
C           86.44       -16.34      70.11       
C           85.92       -15.41      69.18       
C           86.69       -14.24      69.11       
N           84.87       -15.25      68.26       
C           84.88       -13.93      67.86       
C           86.02       -13.28      68.3        
C           84.06       -16.29      67.67       
H           83.58       -15.85      66.74       
H           83.26       -16.56      68.39       
H           84.62975    -17.1843    67.41758    
H           83.02       -13.2       66.96       
H           86.07       -17.28      70.28       
C           84.04       -12.99      67.13       
S           86.19       -11.64      67.78       
C           84.62       -11.71      67.08       
C           93.46       -19.38      79.68       
C           93.97       -18.55      78.64       
C           92.18       -19.95      79.45       
C           91.51       -19.73      78.25       
C           92.01       -18.85      77.29       
C           93.26       -18.25      77.56       
N           90.23       -20.17      77.89       
C           89.87       -19.62      76.69       
C           91.0        -18.69      76.21       
O           88.77       -19.78      76.23       
C           89.39       -21.05      78.71       
C           90.93       -17.95      75.04       
C           89.8        -17.62      74.09       
C           90.37       -16.83      73.01       
N           91.71       -16.54      73.3        
C           92.11       -17.13      74.53       
C           88.45       -17.82      73.86       
O           93.33       -17.14      74.77       
C           92.86       -16.15      72.39       
H           93.61       -17.49      76.94       
H           91.77       -20.58      80.3        
H           94.95       -18.13      78.83       
H           90.26       -15.87      71.14       
H           87.89       -18.33      74.62       
H           86.66       -17.5       72.72       
H           88.33       -20.84      78.43       
H           89.38       -20.85      79.76       
H           89.53242    -22.11817   78.54621    
H           92.6        -16.14      71.28       
H           93.30212    -15.18733   72.64671    
H           93.64       -16.87      72.59       
C           87.72       -17.32      72.75       
C           89.68       -16.35      71.94       
C           88.36       -16.59      71.76       
C           96.9        -20.81      86.51       
S           95.76       -21.72      85.65       
C           97.21       -19.54      85.97       
C           96.57       -19.38      84.67       
C           95.73       -20.5       84.36       
N           96.42       -18.42      83.65       
C           95.51       -18.89      82.76       
C           95.14       -20.21      83.11       
C           97.27       -17.28      83.46       
H           96.62       -16.42      83.18       
H           97.72       -17.0       84.4        
H           98.0926     -17.55656   82.8005     
H           95.24       -17.6       81.03       
H           97.9        -18.9       86.48       
C           95.02       -18.52      81.5        
S           93.88       -20.8       82.08       
C           94.22       -19.51      80.93       
C           100.25      -25.29      96.34       
C           100.61      -23.96      95.92       
C           99.5        -26.11      95.43       
C           99.2        -25.53      94.22       
C           99.61       -24.25      93.73       
C           100.28      -23.46      94.68       
N           98.49       -26.17      93.19       
C           98.29       -25.29      92.07       
C           99.01       -23.96      92.37       
O           97.61       -25.64      91.1        
C           98.17       -27.57      93.13       
C           98.97       -22.83      91.53       
C           98.3        -22.49      90.3        
C           98.82       -21.18      89.8        
N           99.86       -20.84      90.63       
C           99.96       -21.69      91.71       
C           97.33       -23.06      89.52       
O           100.91      -21.56      92.52       
C           100.5       -19.53      90.73       
H           100.65      -22.47      94.48       
H           99.21       -27.12      95.73       
H           101.0       -23.23      96.57       
H           98.72       -19.67      88.25       
H           96.99       -24.05      89.63       
H           96.23       -23.12      87.75       
H           99.01       -28.19      93.44       
H           98.02       -27.8       92.13       
H           97.3156     -27.83832   93.75138    
H           100.6       -19.13      91.75       
H           101.49645   -19.57396   90.29039    
H           99.96       -18.76      90.1        
C           96.92       -22.52      88.33       
C           98.33       -20.63      88.59       
C           97.36       -21.32      87.81       
C           101.34      -29.46      102.72      
S           100.28      -29.72      101.37      
C           101.98      -28.23      102.76      
C           101.73      -27.47      101.58      
C           100.74      -28.16      100.79      
N           102.21      -26.31      100.93      
C           101.45      -26.18      99.81       
C           100.55      -27.27      99.72       
C           103.43      -25.64      101.34      
H           104.28      -26.34      101.64      
H           103.81      -25.12      100.54      
H           103.12626   -24.94968   102.12696   
H           102.09      -24.46      98.51       
H           102.85      -27.97      103.37      
C           101.44      -25.32      98.71       
S           99.66       -27.26      98.2        
C           100.46      -25.72      97.75       
C           103.08      -37.64      110.03      
C           103.87      -36.48      109.94      
C           101.9       -37.64      109.25      
C           101.69      -36.63      108.34      
C           102.45      -35.48      108.2       
C           103.55      -35.45      109.07      
N           100.69      -36.58      107.4       
C           100.82      -35.49      106.53      
C           101.93      -34.66      107.13      
O           100.05      -35.38      105.61      
C           99.41       -37.02      107.77      
C           102.28      -33.42      106.65      
C           101.96      -32.68      105.45      
C           102.42      -31.36      105.69      
N           103.04      -31.24      106.91      
C           103.18      -32.45      107.51      
C           101.29      -32.89      104.22      
O           103.85      -32.55      108.56      
C           102.96      -30.01      107.73      
H           104.34      -34.74      108.94      
H           101.36      -38.58      109.13      
H           104.83      -36.46      110.41      
H           102.61      -29.39      105.04      
H           100.92      -33.86      103.95      
H           100.43      -32.1       102.43      
H           98.63       -36.28      107.7       
H           99.33       -37.21      108.75      
H           99.08091    -37.89523   107.20985   
H           102.64      -30.34      108.76      
H           103.87535   -29.425     107.81947   
H           102.17      -29.45      107.25      
C           101.02      -31.85      103.37      
C           102.16      -30.37      104.85      
C           101.56      -30.6       103.58      
C           104.77      -44.0       114.16      
S           103.22      -43.43      113.56      
C           105.85      -43.2       113.79      
C           105.47      -42.11      113.05      
C           104.03      -42.02      112.81      
N           106.02      -40.97      112.42      
C           104.99      -40.26      111.88      
C           103.75      -40.9       112.02      
C           107.44      -40.59      112.3       
H           107.45      -39.65      111.69      
H           107.95      -41.49      111.83      
H           107.88545   -40.4032    113.27713   
H           105.67      -38.4       110.9       
H           106.9       -43.36      114.04      
C           104.84      -39.04      111.15      
S           102.48      -40.08      111.17      
C           103.57      -38.73      110.9       
C           105.32      -54.07      118.98      
C           106.49      -53.26      118.83      
C           104.13      -53.66      118.33      
C           104.07      -52.47      117.63      
C           105.17      -51.63      117.51      
C           106.39      -52.05      118.18      
N           102.97      -51.92      116.95      
C           103.34      -50.72      116.34      
C           104.77      -50.4       116.76      
O           102.62      -50.25      115.55      
C           101.6       -52.36      117.0       
C           105.44      -49.21      116.35      
C           104.98      -47.99      115.63      
C           106.11      -47.13      115.46      
N           107.25      -47.75      115.96      
C           106.97      -48.98      116.52      
C           103.76      -47.5       115.21      
O           107.88      -49.75      116.74      
C           108.41      -47.02      116.19      
H           107.25      -51.38      118.24      
H           103.28      -54.36      118.28      
H           107.38      -53.47      119.4       
H           106.97      -45.17      115.1       
H           102.83      -48.02      115.42      
H           102.74      -45.83      114.45      
H           101.52      -53.45      116.81      
H           100.95      -51.85      116.19      
H           101.132     -52.21143   117.97314   
H           108.22      -45.98      116.51      
H           109.08178   -47.07906   115.33366   
H           108.94      -47.64      116.95      
C           103.73      -46.15      114.69      
C           106.07      -45.82      115.08      
C           104.83      -45.29      114.74      
C           105.93      -61.0       122.31      
S           104.4       -60.07      122.09      
C           107.04      -60.44      121.83      
C           106.79      -59.19      121.34      
C           105.45      -58.79      121.47      
N           107.48      -58.17      120.72      
C           106.56      -57.19      120.44      
C           105.3       -57.51      120.81      
C           108.96      -58.06      120.46      
H           109.15      -57.02      120.25      
H           109.39      -58.7       119.63      
H           109.62461   -58.27656   121.29636   
H           107.61      -55.44      119.52      
H           108.0       -60.97      121.76      
C           106.66      -55.99      119.72      
S           104.18      -56.33      120.25      
C           105.51      -55.29      119.72      
C           105.22      -70.92      127.43      
C           106.4       -70.21      127.18      
C           104.01      -70.33      127.01      
C           104.04      -69.08      126.28      
C           105.27      -68.37      126.07      
C           106.49      -68.97      126.5       
N           103.0       -68.32      125.78      
C           103.46      -67.23      125.1       
C           104.92      -67.12      125.41      
O           102.76      -66.41      124.58      
C           101.59      -68.66      125.83      
C           105.69      -66.03      125.07      
C           105.53      -64.84      124.17      
C           106.68      -63.95      124.36      
N           107.53      -64.52      125.32      
C           107.02      -65.72      125.8       
C           104.56      -64.38      123.26      
O           107.61      -66.33      126.6       
C           108.62      -63.85      125.96      
H           107.42      -68.5       126.2       
H           103.1       -70.84      127.33      
H           107.36      -70.6       127.42      
H           107.66      -62.15      123.85      
H           103.67      -64.99      123.16      
H           103.77      -62.67      122.28      
H           101.47      -69.37      126.63      
H           100.96      -67.88      126.15      
H           101.2999    -69.15731   124.90446   
H           108.76      -64.21      126.98      
H           109.58875   -64.11108   125.53402   
H           108.51      -62.78      125.88      
C           104.66      -63.11      122.71      
C           106.78      -62.74      123.7       
C           105.8       -62.33      122.82      
C           106.19      -76.27      132.9       
S           107.06      -74.76      132.59      
C           105.15      -76.5       132.07      
C           105.05      -75.44      131.15      
C           106.04      -74.37      131.32      
N           104.2       -75.02      130.1       
C           104.76      -73.93      129.54      
C           105.85      -73.48      130.31      
C           103.11      -75.79      129.5       
H           102.44      -75.13      129.03      
H           102.49      -76.32      130.18      
H           103.48615   -76.5206    128.78387   
H           103.52      -73.12      127.92      
H           104.53      -77.41      132.13      
C           104.38      -73.0       128.56      
S           106.51      -72.02      129.63      
C           105.28      -71.99      128.42      
C           107.45      -82.83      141.96      
C           107.03      -83.28      140.71      
C           107.97      -81.44      141.98      
C           108.1       -80.77      140.75      
C           107.66      -81.34      139.51      
C           107.15      -82.6       139.54      
N           108.65      -79.52      140.5       
C           108.48      -79.11      139.2       
C           107.74      -80.2       138.47      
O           108.84      -78.04      138.74      
C           109.8       -78.9       141.29      
C           107.38      -80.06      137.11      
C           107.16      -78.91      136.17      
C           106.71      -79.43      134.94      
N           106.6       -80.8       135.02      
C           106.93      -81.24      136.29      
C           107.23      -77.53      136.28      
O           106.92      -82.5       136.49      
C           106.64      -81.72      133.89      
H           106.69      -83.04      138.7       
H           108.33      -80.93      142.86      
H           106.72      -84.32      140.73      
H           106.01      -79.03      133.01      
H           107.51      -77.18      137.28      
H           106.96      -75.64      135.28      
H           109.59      -77.95      141.63      
H           109.94      -79.65      142.04      
H           110.72161   -78.92836   140.70868   
H           105.9       -81.37      133.19      
H           107.56512   -81.72      133.31358   
H           106.36      -82.71      134.21      
C           107.01      -76.76      135.18      
C           106.51      -78.63      133.88      
C           106.62      -77.2       133.91      
C           105.75      -85.91      149.11      
S           106.72      -84.5       148.68      
C           105.18      -86.41      147.96      
C           105.6       -85.76      146.74      
C           106.54      -84.72      146.97      
N           105.33      -85.95      145.36      
C           106.23      -85.08      144.73      
C           106.81      -84.18      145.69      
C           104.29      -86.77      144.76      
H           104.32      -86.42      143.7       
H           103.3       -86.58      145.16      
H           104.59778   -87.81503   144.79579   
H           106.04      -85.29      142.51      
H           104.52      -87.27      148.02      
C           106.53      -84.81      143.41      
S           107.74      -82.99      144.81      
C           107.18      -83.58      143.21      
H           45.98       31.85       36.01       
H           105.89      -86.59      149.99      
