512

C           49.96       26.67       41.05       
C           49.3        26.64       39.85       
C           50.37       27.89       41.59       
C           49.91       29.06       40.84       
C           48.99       29.05       39.79       
C           48.7        27.79       39.26       
N           50.29       30.36       41.09       
C           49.43       31.23       40.43       
C           48.59       30.43       39.46       
O           49.43       32.45       40.46       
C           51.38       30.81       41.88       
C           47.6        31.01       38.63       
C           47.28       32.37       38.11       
C           46.16       32.24       37.28       
N           45.83       30.91       37.1        
C           46.62       30.13       37.88       
C           47.65       33.68       38.38       
O           46.33       28.9        37.9        
C           44.6        30.41       36.39       
H           48.21       27.67       38.29       
H           50.93       27.81       42.5        
H           49.29       25.68       39.28       
H           44.74       33.1        36.02       
H           48.38       33.97       39.05       
H           47.28       35.82       38.07       
H           51.07       31.63       42.53       
H           51.61       30.01       42.59       
H           52.28075    31.01505    41.30147    
H           44.45       30.91       35.4        
H           43.66565    30.47275    36.94782    
H           44.78       29.34       36.27       
C           47.07       34.76       37.75       
C           45.56       33.3        36.64       
C           45.94       34.61       36.89       
C           52.74       20.39       44.83       
S           53.42       21.93       44.6        
C           51.39       20.39       44.49       
C           51.02       21.51       43.74       
C           51.99       22.49       43.75       
N           49.87       21.96       43.11       
C           50.16       23.26       42.65       
C           51.45       23.58       43.05       
C           48.57       21.27       42.91       
H           48.15       21.78       42.05       
H           47.9        21.34       43.73       
H           48.71406    20.24097    42.58071    
H           48.53       24.18       41.44       
H           50.8        19.49       44.64       
C           49.49       24.31       41.92       
S           51.86       25.2        42.51       
C           50.26       25.43       41.8        
C           59.15       12.08       49.06       
C           58.12       11.81       48.12       
C           59.35       13.42       49.33       
C           58.59       14.42       48.75       
C           57.53       14.17       47.83       
C           57.31       12.81       47.61       
N           58.66       15.72       49.04       
C           57.65       16.4        48.43       
C           56.88       15.44       47.53       
O           57.43       17.59       48.6        
C           59.67       16.29       49.94       
C           55.78       15.87       46.76       
C           55.23       17.18       46.37       
C           54.05       16.97       45.62       
N           53.81       15.58       45.5        
C           54.8        14.89       46.14       
C           55.63       18.55       46.31       
O           54.7        13.66       46.3        
C           52.76       14.94       44.71       
H           56.66       12.46       46.82       
H           60.13       13.69       50.09       
H           57.98       10.79       47.83       
H           52.17       17.78       44.85       
H           56.58       18.8        46.72       
H           55.31       20.55       45.71       
H           59.42       16.01       50.95       
H           60.72       15.88       49.83       
H           59.89574    17.35522    49.89062    
H           53.16       13.91       44.68       
H           51.7997     14.86613    45.22037    
H           52.78       15.28       43.66       
C           54.81       19.58       45.91       
C           53.23       17.98       45.24       
C           53.57       19.32       45.35       
C           63.6        7.28        53.19       
S           63.78       9.0         52.88       
C           62.48       6.72        52.7        
C           61.74       7.74        52.05       
C           62.34       8.98        52.0        
N           60.52       7.76        51.29       
C           60.38       9.03        50.86       
C           61.45       9.8         51.25       
C           59.58       6.67        51.05       
H           58.64       7.02        50.57       
H           59.06       6.32        52.0        
H           60.00515    5.8197      50.51676    
H           58.73       9.22        49.39       
H           62.27       5.63        52.83       
C           59.48       9.69        50.0        
S           61.34       11.48       50.65       
C           59.86       10.99       49.77       
C           72.06       0.85        56.12       
C           70.74       0.45        56.14       
C           72.34       2.23        56.29       
C           71.26       3.08        56.26       
C           69.88       2.73        56.06       
C           69.71       1.32        55.99       
N           71.26       4.47        56.26       
C           70.06       5.03        55.82       
C           69.03       3.88        55.79       
O           69.94       6.16        55.44       
C           72.19       5.25        57.1        
C           67.64       4.04        55.57       
C           66.74       5.11        55.04       
C           65.41       4.64        55.03       
N           65.34       3.28        55.47       
C           66.62       2.93        55.87       
C           66.93       6.38        54.58       
O           66.74       1.89        56.42       
C           64.2        2.33        55.51       
H           68.77       0.9         55.97       
H           73.34       2.54        56.39       
H           70.5        -0.6        56.04       
H           63.35       5.02        54.45       
H           67.88       6.82        54.69       
H           66.23       7.98        53.43       
H           72.99       4.7         57.6        
H           72.8        5.92        56.44       
H           71.63831    5.84413     57.82852    
H           64.61       1.3         55.49       
H           63.56549    2.43815     56.38966    
H           63.62       2.39        54.58       
C           65.92       7.11        53.97       
C           64.4        5.35        54.44       
C           64.72       6.55        53.82       
C           77.31       -4.68       57.3        
S           75.64       -4.76       57.54       
C           77.78       -3.45       57.03       
C           76.74       -2.53       56.78       
C           75.47       -3.06       57.08       
N           76.58       -1.13       56.52       
C           75.23       -0.89       56.51       
C           74.53       -2.02       56.89       
C           77.46       -0.02       56.01       
H           77.56       0.74        56.77       
H           77.07       0.56        55.16       
H           78.44594    -0.34865    55.68135    
H           74.8        1.16        55.75       
H           78.8        -3.27       56.96       
C           74.47       0.21        56.14       
S           72.84       -1.6        56.9        
C           73.15       -0.06       56.24       
C           83.31       -12.9       61.76       
C           82.0        -13.21      61.27       
C           83.88       -11.72      61.36       
C           83.21       -10.8       60.57       
C           81.86       -11.07      60.21       
C           81.28       -12.29      60.59       
N           83.69       -9.59       60.07       
C           82.64       -8.89       59.52       
C           81.39       -9.79       59.48       
O           82.76       -7.7        59.1        
C           85.12       -9.25       59.93       
C           80.12       -9.46       58.97       
C           79.62       -8.09       58.56       
C           78.27       -8.25       58.17       
N           77.96       -9.57       58.16       
C           78.93       -10.36      58.68       
C           80.07       -6.8        58.53       
O           78.76       -11.52      58.83       
C           76.6        -9.96       57.94       
H           80.28       -12.58      60.36       
H           84.86       -11.5       61.66       
H           81.56       -14.16      61.45       
H           76.71       -7.41       57.14       
H           80.98       -6.5        59.05       
H           79.7        -4.77       58.33       
H           85.33       -8.51       60.73       
H           85.73       -10.15      59.98       
H           85.33011    -8.82277    58.94948    
H           76.49       -11.04      57.9        
H           75.8964     -9.64084    58.70888    
H           76.38       -9.56       56.97       
C           79.33       -5.75       58.12       
C           77.66       -7.2        57.52       
C           78.11       -5.88       57.59       
C           87.46       -16.9       67.04       
S           87.7        -15.32      66.35       
C           86.41       -17.55      66.36       
C           85.69       -16.68      65.53       
C           86.33       -15.44      65.35       
N           84.6        -16.75      64.75       
C           84.58       -15.57      63.97       
C           85.64       -14.76      64.33       
C           83.74       -17.89      64.67       
H           82.95       -17.69      63.94       
H           83.18       -18.14      65.64       
H           84.25947    -18.78349   64.32369    
H           82.93       -15.65      62.48       
H           86.16       -18.59      66.56       
C           83.78       -15.12      62.93       
S           85.57       -13.32      63.34       
C           84.07       -13.84      62.57       
C           92.6        -20.0       76.57       
C           92.99       -18.89      75.83       
C           91.52       -20.78      76.03       
C           90.84       -20.32      74.92       
C           91.19       -19.09      74.18       
C           92.39       -18.43      74.63       
N           89.68       -20.8       74.34       
C           89.29       -20.08      73.24       
C           90.29       -18.99      73.05       
O           88.19       -20.18      72.74       
C           88.71       -21.7       74.96       
C           90.15       -18.05      72.06       
C           89.41       -17.94      70.79       
C           89.5        -16.64      70.3        
N           90.28       -15.85      71.11       
C           90.75       -16.59      72.13       
C           88.66       -18.81      69.99       
O           91.51       -16.17      72.99       
C           90.42       -14.41      71.09       
H           92.8        -17.68      74.04       
H           91.22       -21.73      76.45       
H           93.83       -18.33      76.16       
H           88.91       -15.26      68.87       
H           88.43       -19.82      70.37       
H           87.45       -19.09      68.35       
H           87.68       -21.37      74.86       
H           88.94       -21.91      76.01       
H           88.76683    -22.7016    74.53379    
H           90.47       -14.01      72.13       
H           91.29669    -14.14628   70.49841    
H           89.51       -13.98      70.67       
C           88.04       -18.41      68.8        
C           88.84       -16.28      69.13       
C           88.17       -17.18      68.29       
C           94.5        -22.3       83.7        
S           93.48       -22.99      82.4        
C           95.12       -21.12      83.3        
C           94.76       -20.82      81.91       
C           93.8        -21.67      81.34       
N           95.06       -19.8       80.98       
C           94.36       -20.17      79.89       
C           93.54       -21.25      80.07       
C           95.82       -18.53      81.22       
H           95.9        -18.07      80.27       
H           95.25       -17.79      81.87       
H           96.7561     -18.76576   81.72619    
H           94.59       -18.67      78.23       
H           95.79       -20.56      83.92       
C           94.17       -19.63      78.58       
S           92.62       -21.76      78.72       
C           93.21       -20.36      77.85       
C           95.81       -27.64      93.53       
C           96.23       -26.32      93.31       
C           95.17       -28.3       92.44       
C           95.08       -27.67      91.24       
C           95.49       -26.34      90.97       
C           96.03       -25.66      92.09       
N           94.51       -28.19      90.04       
C           94.7        -27.31      89.0        
C           95.2        -26.0       89.57       
O           94.34       -27.64      87.89       
C           93.9        -29.56      89.85       
C           95.61       -24.91      88.72       
C           95.17       -24.48      87.33       
C           95.89       -23.27      86.97       
N           96.74       -22.93      88.02       
C           96.53       -23.79      89.09       
C           94.22       -24.92      86.45       
O           97.28       -23.78      90.07       
C           97.27       -21.53      88.22       
H           96.38       -24.7       91.97       
H           94.78       -29.31      92.64       
H           96.6        -25.71      94.18       
H           96.29       -21.6       85.64       
H           93.51       -25.76      86.7        
H           93.14       -24.52      84.62       
H           94.22       -30.25      90.55       
H           94.05       -29.95      88.86       
H           92.82135    -29.53065   90.00409    
H           97.1        -21.28      89.26       
H           98.2697     -21.33857   87.83005    
H           96.55       -20.91      87.7        
C           93.96       -24.15      85.3        
C           95.7        -22.47      85.83       
C           94.69       -22.99      84.97       
C           98.09       -32.82      98.82       
S           96.77       -32.82      97.7        
C           98.76       -31.57      98.78       
C           98.19       -30.66      97.85       
C           97.11       -31.22      97.16       
N           98.51       -29.44      97.27       
C           97.53       -29.17      96.33       
C           96.67       -30.23      96.22       
C           99.39       -28.45      97.9        
H           98.88       -27.51      98.11       
H           99.73       -28.82      98.82       
H           100.29797   -28.35557   97.30437    
H           97.61       -27.04      95.48       
H           99.61       -31.36      99.36       
C           97.09       -28.05      95.6        
S           95.48       -29.98      95.04       
C           96.14       -28.4       94.69       
C           101.89      -42.19      103.89      
C           101.96      -40.94      104.5       
C           101.2       -42.31      102.71      
C           100.55      -41.18      102.16      
C           100.72      -39.83      102.72      
C           101.41      -39.77      103.94      
N           99.76       -41.07      100.97      
C           99.34       -39.8       100.79      
C           100.02      -38.89      101.75      
O           98.61       -39.51      99.88       
C           99.19       -42.17      100.25      
C           99.92       -37.46      101.77      
C           99.28       -36.49      100.89      
C           99.66       -35.16      101.35      
N           100.58      -35.25      102.37      
C           100.9       -36.58      102.6       
C           98.47       -36.52      99.73       
O           101.84      -36.85      103.36      
C           100.85      -34.27      103.43      
H           101.45      -38.77      104.45      
H           101.02      -43.31      102.31      
H           102.55      -40.9       105.42      
H           99.61       -32.97      101.03      
H           98.18       -37.45      99.32       
H           97.39       -35.32      98.2        
H           99.95       -42.94      100.37      
H           99.09       -41.99      99.15       
H           98.26913    -42.54543   100.69627   
H           100.82      -34.78      104.42      
H           101.80033   -33.74444   103.33641   
H           99.95       -33.57      103.39      
C           98.04       -35.28      99.1        
C           99.21       -33.95      100.76      
C           98.46       -34.03      99.55       
C           105.69      -48.3       107.07      
S           104.08      -48.2       106.31      
C           106.32      -47.11      106.94      
C           105.46      -46.02      106.36      
C           104.23      -46.51      105.97      
N           105.65      -44.69      106.01      
C           104.45      -44.34      105.47      
C           103.51      -45.41      105.46      
C           106.86      -43.78      106.27      
H           106.41      -42.85      106.33      
H           107.57      -43.73      105.4       
H           107.40109   -44.04361   107.17875   
H           104.52      -42.24      104.8       
H           107.37      -47.08      107.14      
C           103.99      -43.16      104.86      
S           102.07      -44.82      104.7       
C           102.67      -43.26      104.44      
C           107.69      -57.88      112.43      
C           108.74      -56.96      112.18      
C           106.48      -57.66      111.8       
C           106.31      -56.55      111.0       
C           107.43      -55.59      110.71      
C           108.58      -55.81      111.43      
N           105.24      -56.19      110.17      
C           105.56      -55.07      109.37      
C           106.9       -54.53      109.81      
O           104.78      -54.64      108.55      
C           104.11      -57.04      109.94      
C           107.41      -53.32      109.35      
C           106.75      -52.18      108.74      
C           107.76      -51.19      108.34      
N           109.03      -51.66      108.71      
C           108.87      -52.96      109.28      
C           105.43      -51.73      108.6       
O           109.86      -53.66      109.4       
C           110.3       -51.22      108.13      
H           109.32      -55.07      111.32      
H           105.66      -58.34      111.85      
H           109.6       -57.09      112.85      
H           108.16      -49.22      107.47      
H           104.61      -52.31      108.98      
H           104.11      -50.12      108.1       
H           104.37      -58.05      110.1       
H           103.69      -56.9       108.96      
H           103.25902   -56.8698    110.59951   
H           110.45      -50.15      108.31      
H           110.4597    -51.54635   107.10234   
H           111.09      -51.7       108.74      
C           105.14      -50.45      108.06      
C           107.42      -49.92      107.79      
C           106.07      -49.56      107.65      
C           106.86      -64.42      116.41      
S           105.89      -62.92      116.29      
C           108.02      -64.34      115.65      
C           108.15      -63.06      115.05      
C           107.06      -62.23      115.23      
N           109.1       -62.48      114.26      
C           108.6       -61.19      113.93      
C           107.31      -61.11      114.49      
C           110.43      -62.94      113.99      
H           110.89      -62.35      113.19      
H           110.47      -63.95      113.7       
H           111.03909   -62.72247   114.86738   
H           109.84      -59.85      112.62      
H           108.64      -65.13      115.46      
C           108.87      -60.02      113.17      
S           106.5       -59.66      114.06      
C           107.88      -59.03      113.3       
C           103.66      -72.67      123.46      
C           104.98      -72.41      123.27      
C           102.75      -72.07      122.57      
C           103.25      -71.25      121.55      
C           104.59      -70.89      121.42      
C           105.47      -71.53      122.32      
N           102.52      -70.6       120.54      
C           103.32      -69.89      119.65      
C           104.72      -69.87      120.26      
O           102.89      -69.26      118.7       
C           101.1       -70.82      120.24      
C           105.71      -69.0       119.78      
C           105.76      -67.85      118.81      
C           107.02      -67.33      118.81      
N           107.81      -67.93      119.75      
C           107.09      -68.88      120.37      
C           104.81      -67.14      118.01      
O           107.58      -69.44      121.3       
C           109.11      -67.47      120.23      
H           106.57      -71.49      122.18      
H           101.63      -72.16      122.64      
H           105.66      -72.85      124.03      
H           108.54      -65.96      117.99      
H           103.73      -67.34      118.02      
H           104.49      -65.5       116.69      
H           101.04      -71.26      119.23      
H           100.66      -71.54      121.02      
H           100.55216   -69.89288   120.40857   
H           109.13      -67.37      121.38      
H           109.89161   -68.18707   119.97902   
H           109.26      -66.4       119.95      
C           105.23      -65.99      117.32      
C           107.45      -66.3       118.04      
C           106.55      -65.61      117.23      
C           102.58      -77.28      129.63      
S           103.58      -75.81      129.45      
C           101.73      -77.47      128.62      
C           101.86      -76.49      127.61      
C           102.85      -75.54      127.94      
N           101.24      -76.16      126.38      
C           101.94      -75.06      125.84      
C           102.94      -74.71      126.78      
C           99.99       -76.8       125.85      
H           99.9        -76.57      124.75      
H           99.11       -76.28      126.28      
H           99.93103    -77.87625   126.01218   
H           101.46      -74.56      123.74      
H           101.01      -78.21      128.6       
C           102.04      -74.37      124.62      
S           103.91      -73.38      126.16      
C           103.15      -73.48      124.55      
C           103.79      -84.11      138.47      
C           103.27      -84.62      137.3       
C           104.01      -82.77      138.59      
C           103.82      -81.91      137.53      
C           103.35      -82.37      136.22      
C           103.06      -83.8       136.17      
N           104.16      -80.55      137.43      
C           103.83      -79.97      136.2       
C           103.33      -81.16      135.34      
O           103.92      -78.85      135.96      
C           105.05      -79.89      138.35      
C           102.87      -81.0       134.04      
C           102.99      -79.91      133.07      
C           102.2       -80.17      131.91      
N           101.67      -81.45      132.01      
C           101.91      -81.97      133.29      
C           103.65      -78.66      133.0       
O           101.42      -83.05      133.56      
C           100.51      -81.95      131.25      
H           102.69      -84.27      135.32      
H           104.36      -82.31      139.54      
H           102.99      -85.73      137.23      
H           101.55      -79.63      129.9       
H           104.35      -78.41      133.75      
H           104.25      -76.84      131.9       
H           104.62      -78.99      138.69      
H           105.19      -80.46      139.23      
H           106.05164   -79.8029    137.92902   
H           100.14      -81.2       130.66      
H           100.82436   -82.75417   130.58473   
H           99.77       -82.22      132.01      
C           103.53      -77.74      131.94      
C           102.14      -79.35      130.74      
C           102.77      -78.1       130.78      
C           105.9       -89.87      143.48      
S           104.8       -89.92      142.05      
C           106.45      -88.61      143.62      
C           106.0       -87.7       142.62      
C           104.99      -88.22      141.78      
N           106.21      -86.35      142.3       
C           105.32      -86.04      141.28      
C           104.56      -87.15      140.96      
C           107.12      -85.47      143.02      
H           107.14      -84.44      142.66      
H           108.14      -85.77      142.98      
H           106.81362   -85.30612   144.05314   
H           105.6       -83.92      140.54      
H           107.31      -88.4       144.27      
C           105.06      -84.84      140.5       
S           103.56      -86.75      139.64      
C           104.12      -85.05      139.53      
H           45.92       35.33       36.05       
H           106.3       -90.81      143.86      
