512

C           24.47       9.16        5.58        
C           24.15       8.02        6.31        
C           23.41       9.75        4.81        
C           22.1        9.21        4.94        
C           21.8        8.04        5.64        
C           22.84       7.45        6.39        
N           21.01       9.74        4.4         
C           19.93       9.0         4.58        
C           20.36       7.78        5.35        
O           18.84       9.3         4.13        
C           20.93       11.16       3.96        
C           19.56       6.67        5.64        
C           18.07       6.46        5.66        
C           17.83       5.15        6.07        
N           19.04       4.53        6.37        
C           20.14       5.33        6.13        
C           16.92       7.21        5.44        
O           21.24       4.78        6.35        
C           19.12       3.16        6.96        
H           22.66       6.54        6.99        
H           23.62       10.61       4.22        
H           24.89       7.47        6.85        
H           16.35       3.44        6.33        
H           16.99       8.29        5.35        
H           14.8        7.31        5.43        
H           21.86       11.64       3.8         
H           20.34       11.2        3.01        
H           20.44305    11.8139     4.68346     
H           18.58       2.44        6.34        
H           18.89996    3.08192     8.0247      
H           20.2        2.89        6.85        
C           15.65       6.69        5.51        
C           16.55       4.53        6.08        
C           15.42       5.33        5.75        
C           31.87       11.15       4.89        
S           31.15       9.53        5.05        
C           31.01       12.17       5.1         
C           29.67       11.65       5.15        
C           29.56       10.26       5.2         
N           28.36       12.17       5.11        
C           27.47       11.14       5.32        
C           28.19       9.93        5.29        
C           27.86       13.53       4.88        
H           26.93       13.65       5.47        
H           27.62       13.78       3.78        
H           28.57156    14.28513    5.214       
H           25.4        11.75       5.49        
H           31.24       13.15       4.99        
C           26.09       11.0        5.4         
S           27.11       8.56        5.29        
C           25.82       9.7         5.39        
C           43.05       11.5        3.89        
C           42.32       10.34       4.04        
C           42.34       12.64       3.68        
C           40.96       12.69       3.76        
C           40.22       11.52       3.94        
C           40.94       10.35       4.2         
N           40.09       13.8        3.67        
C           38.75       13.4        3.77        
C           38.75       11.88       3.96        
O           37.88       14.21       3.57        
C           40.45       15.19       3.6         
C           37.57       11.11       3.93        
C           36.14       11.42       4.12        
C           35.36       10.21       3.95        
N           36.14       9.17        3.59        
C           37.42       9.59        3.69        
C           35.44       12.58       4.44        
O           38.26       8.87        3.3         
C           35.77       8.11        2.67        
H           40.43       9.47        4.51        
H           42.92       13.45       3.67        
H           42.93       9.48        4.15        
H           33.51       9.23        3.92        
H           35.98       13.53       4.5         
H           33.53       13.34       5.1         
H           41.54       15.28       3.36        
H           39.92       15.55       2.66        
H           40.21146    15.65985    4.55417     
H           36.27       8.24        1.76        
H           35.77       7.14388     3.17469     
H           34.74       8.36        2.26        
C           34.07       12.45       4.74        
C           34.0        10.13       4.03        
C           33.33       11.27       4.55        
C           50.86       12.11       3.63        
S           49.6        13.24       3.22        
C           50.22       10.92       3.98        
C           48.85       10.87       3.7         
C           48.3        12.09       3.33        
N           47.86       9.93        3.89        
C           46.62       10.6        3.62        
C           46.89       11.97       3.37        
C           48.02       8.48        3.91        
H           47.01       8.06        3.69        
H           48.46       8.15        4.83        
H           48.78931    8.17672     3.19987     
H           44.92       9.25        3.9         
H           50.71       10.15       4.53        
C           45.24       10.28       3.67        
S           45.45       12.91       3.4         
C           44.5        11.46       3.65        
C           60.5        16.55       6.67        
C           60.25       15.22       7.0         
C           59.65       17.31       5.95        
C           58.52       16.73       5.4         
C           58.24       15.36       5.66        
C           59.14       14.61       6.51        
N           57.58       17.27       4.52        
C           56.58       16.33       4.25        
C           56.93       15.05       4.97        
O           55.73       16.52       3.4         
C           57.56       18.63       4.02        
C           56.16       13.91       4.88        
C           54.75       13.69       4.49        
C           54.56       12.28       4.53        
N           55.68       11.66       5.01        
C           56.81       12.57       5.14        
C           53.64       14.48       4.26        
O           57.97       12.27       5.21        
C           55.89       10.2        4.95        
H           58.87       13.63       6.79        
H           59.89       18.41       5.76        
H           60.88       14.57       7.62        
H           53.05       10.77       4.25        
H           53.71       15.51       4.29        
H           51.56       14.65       3.88        
H           58.32       19.14       4.64        
H           57.84       18.69       2.92        
H           56.61086    19.09749    4.28208     
H           56.89       9.95        4.61        
H           55.62504    9.69873     5.88093     
H           55.27       9.77        4.23        
C           52.35       13.96       4.04        
C           53.31       11.78       4.27        
C           52.21       12.57       3.92        
C           66.68       20.57       8.94        
S           65.97       20.43       7.32        
C           66.13       19.78       9.87        
C           65.03       19.08       9.34        
C           64.75       19.36       8.03        
N           64.15       18.07       9.8         
C           63.26       17.83       8.74        
C           63.61       18.69       7.69        
C           64.25       17.4        11.07       
H           63.49       16.66       11.17       
H           64.12       18.12       11.87       
H           65.18785    16.84998    11.14757    
H           61.96       16.06       9.06        
H           66.58       19.61       10.83       
C           62.3        16.86       8.43        
S           62.42       18.48       6.48        
C           61.69       17.1        7.23        
C           76.71       25.28       10.1        
C           75.64       25.84       10.72       
C           76.5        24.48       9.03        
C           75.15       24.1        8.71        
C           74.03       24.44       9.57        
C           74.27       25.44       10.53       
N           74.75       23.26       7.66        
C           73.46       22.75       7.96        
C           72.9        23.5        9.18        
O           73.05       21.82       7.23        
C           75.46       23.17       6.44        
C           71.63       23.28       9.74        
C           70.42       22.59       9.25        
C           69.44       22.64       10.31       
N           69.96       23.37       11.39       
C           71.2        23.86       11.07       
C           70.06       21.93       8.07        
O           71.78       24.59       11.87       
C           69.17       23.81       12.56       
H           73.52       25.84       11.15       
H           77.3        24.08       8.42        
H           75.81       26.6        11.45       
H           67.48       21.97       11.0        
H           70.74       21.92       7.25        
H           68.66       20.5        7.13        
H           76.42       23.65       6.42        
H           75.75       22.14       6.33        
H           74.84897    23.40343    5.56808     
H           68.18       24.05       12.29       
H           69.05514    23.09928    13.3784     
H           69.72       24.63       13.03       
C           68.85       21.2        7.96        
C           68.23       21.98       10.17       
C           67.88       21.34       8.98        
C           84.49       25.95       11.51       
S           83.57       25.38       10.08       
C           83.62       26.64       12.29       
C           82.27       26.72       11.81       
C           82.04       25.83       10.74       
N           81.02       27.11       12.26       
C           80.03       26.55       11.48       
C           80.64       25.76       10.51       
C           80.74       27.86       13.54       
H           79.71       27.73       13.87       
H           80.96       28.89       13.46       
H           81.42273    27.6347     14.35928    
H           77.92       27.0        12.05       
H           83.91       27.17       13.22       
C           78.61       26.48       11.39       
S           79.46       25.08       9.38        
C           78.14       25.6        10.42       
C           95.3        23.5        13.05       
C           94.79       23.57       11.74       
C           94.45       23.82       14.06       
C           93.1        23.99       13.76       
C           92.5        23.91       12.5        
C           93.43       23.77       11.43       
N           92.11       24.14       14.8        
C           90.86       24.14       14.27       
C           91.04       24.09       12.76       
O           89.75       24.18       14.84       
C           92.33       24.36       16.24       
C           89.98       24.21       11.91       
C           88.61       24.79       12.01       
C           87.88       24.69       10.82       
N           88.77       24.18       9.8         
C           89.97       23.78       10.41       
C           87.79       25.37       13.05       
O           90.93       23.33       9.78        
C           88.63       24.1        8.33        
H           93.07       23.72       10.4        
H           94.77       23.79       15.07       
H           95.48       23.44       10.94       
H           86.22       25.02       9.62        
H           88.23       25.49       14.04       
H           85.85       26.11       13.65       
H           91.51       24.95       16.67       
H           93.25       25.0        16.37       
H           92.32286    23.40284    16.76144    
H           89.48       24.34       7.74        
H           88.3277     23.11393    7.97732     
H           87.94       24.88       8.07        
C           86.45       25.77       12.85       
C           86.65       25.16       10.63       
C           85.85       25.6        11.66       
C           102.68      22.8        15.38       
S           101.27      22.36       16.28       
C           102.37      23.49       14.25       
C           101.02      23.65       14.02       
C           100.25      23.06       14.99       
N           100.28      24.17       13.04       
C           98.96       23.85       13.31       
C           98.9        23.14       14.5        
C           100.64      25.18       12.06       
H           101.67      25.12       11.81       
H           100.09      25.12       11.12       
H           100.43782   26.16303    12.48528    
H           97.58       24.86       11.96       
H           103.12      23.97       13.63       
C           97.73       24.11       12.75       
S           97.32       22.61       14.78       
C           96.75       23.41       13.32       
C           112.63      19.84       19.36       
C           112.33      19.65       18.0        
C           111.63      20.38       20.26       
C           110.42      20.83       19.73       
C           110.11      20.73       18.33       
C           111.11      20.07       17.52       
N           109.36      21.4        20.38       
C           108.42      21.88       19.47       
C           108.78      21.41       18.06       
O           107.54      22.61       19.78       
C           109.37      21.85       21.81       
C           108.02      21.62       16.93       
C           106.59      22.01       16.81       
C           106.33      22.04       15.42       
N           107.37      21.71       14.66       
C           108.44      21.4        15.5        
C           105.45      22.24       17.73       
O           109.55      21.14       15.07       
C           107.32      21.37       13.25       
H           110.82      19.87       16.57       
H           111.9       20.67       21.25       
H           113.02      19.18       17.28       
H           104.84      22.24       13.86       
H           105.58      22.17       18.76       
H           103.36      22.71       17.93       
H           108.75      22.82       21.83       
H           110.36      21.95       22.05       
H           108.92484   21.09458    22.45751    
H           106.46      20.83       13.03       
H           107.40268   22.21057    12.56101    
H           108.17      20.72       13.06       
C           104.14      22.45       17.23       
C           105.03      22.26       14.95       
C           103.98      22.46       15.83       
C           118.01      16.22       23.75       
S           116.86      17.4        24.18       
C           117.9       15.92       22.42       
C           116.98      16.68       21.65       
C           116.35      17.64       22.46       
N           116.47      16.79       20.37       
C           115.59      17.85       20.3        
C           115.48      18.3        21.6        
C           116.84      15.93       19.27       
H           116.25      16.26       18.42       
H           117.88      16.05       18.89       
H           116.56469   14.90642    19.52413    
H           114.7       18.07       18.32       
H           118.47      15.09       22.04       
C           114.75      18.43       19.34       
S           114.25      19.57       21.56       
C           113.94      19.38       19.87       
C           122.75      7.55        28.77       
C           121.53      8.03        29.26       
C           123.52      8.35        27.97       
C           122.99      9.59        27.53       
C           121.78      10.11       28.0        
C           121.04      9.27        28.96       
N           123.56      10.6        26.79       
C           122.8       11.67       26.52       
C           121.5       11.37       27.24       
O           123.21      12.66       25.98       
C           124.94      10.63       26.26       
C           120.42      12.28       27.21       
C           120.1       13.41       26.31       
C           118.8       13.91       26.68       
N           118.33      13.19       27.76       
C           119.22      12.29       28.24       
C           120.61      13.89       25.09       
O           119.07      11.71       29.31       
C           117.13      13.56       28.56       
H           120.1       9.62        29.36       
H           124.49      8.08        27.63       
H           120.97      7.32        29.96       
H           117.16      15.34       26.24       
H           121.55      13.56       24.71       
H           120.36      15.23       23.5        
H           125.65      10.2        26.93       
H           125.36      11.64       26.23       
H           125.02479   10.24844    25.24249    
H           116.64      12.69       28.94       
H           117.42915   14.16527    29.41572    
H           116.49      14.15       27.92       
C           119.89      14.76       24.35       
C           118.11      14.85       25.92       
C           118.65      15.27       24.72       
C           125.54      0.79        31.82       
S           124.44      1.97        32.52       
C           126.02      1.27        30.59       
C           125.45      2.48        30.21       
C           124.49      3.02        31.07       
N           125.63      3.37        29.15       
C           124.79      4.4         29.4        
C           123.97      4.18        30.52       
C           126.51      3.14        28.06       
H           126.46      3.93        27.31       
H           126.02      2.31        27.54       
H           127.54578   2.99102     28.36506    
H           124.88      5.84        27.81       
H           126.86      0.68        30.07       
C           124.46      5.55        28.71       
S           122.82      5.45        30.74       
C           123.36      6.22        29.24       
C           124.22      -9.41       36.35       
C           124.14      -8.31       37.17       
C           124.55      -9.23       35.04       
C           124.71      -7.96       34.6        
C           124.64      -6.78       35.4        
C           124.32      -7.0        36.68       
N           124.96      -7.53       33.27       
C           125.07      -6.15       33.13       
C           125.06      -5.61       34.57       
O           125.05      -5.58       32.03       
C           124.96      -8.4        32.08       
C           125.09      -4.18       34.74       
C           125.48      -2.97       33.85       
C           125.12      -1.74       34.51       
N           124.63      -2.06       35.77       
C           124.52      -3.42       35.97       
C           126.08      -2.84       32.59       
O           124.13      -3.91       37.1        
C           123.78      -1.13       36.54       
H           124.41      -6.2        37.33       
H           124.79      -10.05      34.38       
H           124.08      -8.45       38.2        
H           124.98      0.34        34.46       
H           126.45      -3.76       32.11       
H           126.49      -1.39       30.92       
H           124.93      -7.69       31.22       
H           124.07      -9.01       32.04       
H           125.84031   -9.04277    32.08       
H           123.37      -0.38       35.87       
H           124.30249   -0.5422     37.29471    
H           122.98      -1.77       36.95       
C           126.02      -1.58       31.92       
C           125.26      -0.52       33.92       
C           125.58      -0.43       32.55       
C           122.58      -16.81      38.2        
S           122.83      -16.03      36.63       
C           122.84      -15.95      39.29       
C           123.16      -14.65      38.77       
C           123.13      -14.49      37.38       
N           123.42      -13.43      39.39       
C           123.69      -12.55      38.33       
C           123.51      -13.17      37.09       
C           123.11      -13.05      40.79       
H           123.14      -12.01      40.89       
H           123.91      -13.51      41.45       
H           122.07098   -13.29704   41.00798    
H           124.11      -10.46      39.08       
H           122.79      -16.29      40.34       
C           124.1       -11.17      38.25       
S           123.87      -12.04      35.82       
C           124.06      -10.74      36.95       
C           114.53      -24.06      36.89       
C           115.43      -23.77      35.92       
C           114.84      -23.74      38.24       
C           116.0       -23.03      38.54       
C           116.91      -22.76      37.55       
C           116.62      -23.22      36.21       
N           116.35      -22.59      39.77       
C           117.55      -21.86      39.66       
C           117.98      -21.94      38.23       
O           118.04      -21.3       40.64       
C           115.86      -23.11      41.02       
C           119.11      -21.31      37.73       
C           120.06      -20.22      38.18       
C           121.11      -20.02      37.22       
N           120.95      -20.91      36.16       
C           119.86      -21.69      36.32       
C           120.16      -19.36      39.34       
O           119.71      -22.58      35.47       
C           122.05      -21.22      35.23       
H           117.32      -22.99      35.46       
H           114.17      -24.04      38.99       
H           115.25      -24.0       34.86       
H           122.79      -18.87      36.63       
H           119.45      -19.43      40.11       
H           120.85      -17.55      40.13       
H           115.58      -22.33      41.75       
H           114.92      -23.71      40.84       
H           116.66871   -23.68765   41.46768    
H           122.35      -22.25      35.24       
H           121.8439    -20.82842   34.23386    
H           122.93      -20.71      35.63       
C           121.01      -18.29      39.37       
C           122.1       -19.01      37.37       
C           121.95      -18.09      38.36       
C           106.98      -24.08      35.44       
S           107.96      -23.89      36.88       
C           107.82      -24.54      34.47       
C           109.2       -24.64      34.77       
C           109.42      -24.28      36.06       
N           110.4       -25.06      34.23       
C           111.39      -24.83      35.18       
C           110.79      -24.44      36.31       
C           110.45      -25.85      33.07       
H           111.47      -25.97      32.72       
H           110.07      -25.37      32.17       
H           109.9109    -26.77726   33.26408    
H           113.38      -24.83      34.32       
H           107.39      -24.71      33.44       
C           112.79      -24.78      35.24       
S           111.94      -24.16      37.59       
C           113.22      -24.52      36.48       
C           95.76       -22.59      35.27       
C           96.43       -23.2       34.21       
C           96.51       -22.03      36.27       
C           97.88       -22.1       36.19       
C           98.65       -22.74      35.2        
C           97.82       -23.27      34.17       
N           98.74       -21.54      37.06       
C           100.08      -21.84      36.78       
C           100.11      -22.69      35.56       
O           100.89      -21.52      37.55       
C           98.31       -20.85      38.24       
C           101.22      -23.3       35.09       
C           102.65      -23.44      35.45       
C           103.33      -24.21      34.48       
N           102.41      -24.51      33.46       
C           101.2       -24.04      33.72       
C           103.5       -22.94      36.48       
O           100.31      -24.3       32.93       
C           102.75      -24.86      32.04       
H           98.28       -23.85      33.4        
H           95.96       -21.46      37.04       
H           95.86       -23.54      33.34       
H           105.16      -25.15      33.65       
H           103.11      -22.27      37.2        
H           105.52      -22.86      37.26       
H           97.36       -21.05      38.63       
H           99.01       -21.08      39.01       
H           98.33827    -19.76149   38.19052    
H           103.81      -24.63      31.7        
H           102.60525   -25.91462   31.80564    
H           102.2       -24.23      31.34       
C           104.88      -23.24      36.42       
C           104.7       -24.5       34.43       
C           105.51      -23.93      35.41       
C           88.1        -21.94      36.42       
S           89.39       -22.01      37.58       
C           88.56       -22.1       35.14       
C           89.94       -22.05      35.04       
C           90.55       -22.15      36.26       
N           90.84       -22.22      34.01       
C           92.08       -22.3       34.55       
C           91.97       -22.24      35.92       
C           90.52       -22.14      32.6        
H           91.42       -22.29      32.03       
H           90.27       -21.12      32.5        
H           89.69738    -22.80246   32.33065    
H           93.77       -22.78      33.14       
H           87.93       -22.15      34.27       
C           93.42       -22.57      34.22       
S           93.5        -22.13      36.77       
C           94.3        -22.5       35.31       
H           14.4        4.98        6.04        
H           87.12       -21.64      36.69       
