512

C           53.6        16.68       38.73       
C           52.3        16.95       38.34       
C           54.49       17.76       38.83       
C           53.98       19.04       38.6        
C           52.64       19.37       38.22       
C           51.81       18.23       38.03       
N           54.66       20.28       38.71       
C           53.76       21.38       38.6        
C           52.42       20.78       38.16       
O           54.21       22.51       38.58       
C           55.96       20.37       39.25       
C           51.45       21.66       37.69       
C           51.18       23.08       37.89       
C           50.05       23.32       37.07       
N           49.67       22.15       36.33       
C           50.65       21.22       36.49       
C           51.65       24.06       38.74       
O           50.56       20.1        35.99       
C           48.5        21.92       35.49       
H           50.86       18.36       37.67       
H           55.52       17.52       39.03       
H           51.62       16.08       38.27       
H           48.51       24.85       36.51       
H           52.47       23.97       39.44       
H           51.46       26.13       39.39       
H           56.55       19.54       38.97       
H           56.46       21.26       38.9        
H           55.8969     20.42609    40.33673    
H           48.32       22.71       34.75       
H           47.61614    21.76191    36.10798    
H           48.79       21.05       34.89       
C           51.06       25.32       38.7        
C           49.38       24.57       37.04       
C           49.99       25.6        37.85       
C           56.43       9.65        40.62       
S           56.73       11.25       41.31       
C           55.42       9.67        39.7        
C           54.9        10.98       39.48       
C           55.53       12.01       40.25       
N           53.97       11.57       38.65       
C           54.06       12.97       38.87       
C           55.08       13.24       39.83       
C           53.01       10.89       37.74       
H           52.59       11.61       37.0        
H           52.07       10.59       38.24       
H           53.50336    10.13587    37.12683    
H           52.51       14.22       37.64       
H           55.15       8.8         39.1        
C           53.4        14.16       38.4        
S           55.15       14.94       40.19       
C           53.96       15.29       38.93       
C           63.18       1.35        43.85       
C           62.15       1.09        42.97       
C           63.25       2.62        44.41       
C           62.43       3.6         43.95       
C           61.34       3.38        43.04       
C           61.29       2.09        42.49       
N           62.33       4.9         44.39       
C           61.41       5.64        43.68       
C           60.55       4.66        42.92       
O           61.29       6.87        43.89       
C           62.98       5.32        45.58       
C           59.37       5.04        42.23       
C           58.89       6.38        41.9        
C           57.56       6.17        41.42       
N           57.2        4.81        41.34       
C           58.23       3.98        41.88       
C           59.35       7.72        41.96       
O           58.26       2.74        42.03       
C           55.91       4.17        41.22       
H           60.54       1.7         41.83       
H           64.06       2.87        45.11       
H           61.98       0.07        42.56       
H           55.77       7.11        40.52       
H           60.32       8.05        42.31       
H           59.15       9.74        41.39       
H           62.17       5.74        46.2        
H           63.4        4.57        46.24       
H           63.70675    6.09614     45.3401     
H           55.27       4.41        42.07       
H           55.41589    4.44529     40.28824    
H           56.04       3.06        41.42       
C           58.62       8.74        41.42       
C           56.82       7.26        40.91       
C           57.27       8.54        40.91       
C           68.68       -3.33       46.58       
S           68.59       -1.59       46.54       
C           67.64       -3.92       45.9        
C           66.71       -2.88       45.57       
C           67.11       -1.59       45.73       
N           65.55       -2.93       44.94       
C           65.16       -1.66       44.61       
C           66.08       -0.8        45.23       
C           64.82       -4.16       44.54       
H           63.89       -3.84       44.11       
H           64.82       -4.92       45.31       
H           65.27891    -4.56154    43.63653    
H           63.06       -1.54       43.77       
H           67.64       -4.95       45.59       
C           63.93       -1.0        44.19       
S           65.55       0.88        45.22       
C           64.11       0.38        44.3        
C           76.83       -8.92       51.78       
C           75.48       -9.29       51.72       
C           77.06       -7.69       51.26       
C           76.08       -6.97       50.57       
C           74.76       -7.43       50.25       
C           74.5        -8.68       50.89       
N           76.26       -5.74       49.92       
C           75.15       -5.32       49.26       
C           74.09       -6.41       49.45       
O           75.17       -4.26       48.62       
C           77.55       -5.03       49.8        
C           72.87       -6.42       48.83       
C           72.05       -5.39       48.18       
C           70.89       -6.04       47.75       
N           70.9        -7.37       48.03       
C           72.11       -7.74       48.65       
C           72.09       -4.03       47.98       
O           72.44       -8.9        48.78       
C           69.88       -8.33       47.64       
H           73.53       -9.15       50.85       
H           78.05       -7.25       51.38       
H           75.29       -10.21      52.22       
H           69.02       -5.92       46.76       
H           72.99       -3.51       48.11       
H           71.09       -2.3        47.28       
H           77.22       -3.99       49.86       
H           78.25       -5.2        50.69       
H           78.1414     -5.22713    48.90586    
H           70.48       -9.18       47.23       
H           69.13338    -8.55754    48.40084    
H           69.45       -7.99       46.75       
C           70.98       -3.35       47.46       
C           69.85       -5.38       47.14       
C           69.85       -4.01       47.07       
C           80.49       -10.12      58.43       
S           78.81       -10.03      57.99       
C           81.28       -10.22      57.3        
C           80.53       -10.21      56.04       
C           79.09       -10.09      56.28       
N           80.74       -10.41      54.7        
C           79.49       -10.01      54.14       
C           78.43       -9.95       55.04       
C           81.99       -10.76      54.02       
H           81.79       -10.95      52.98       
H           82.43       -11.6       54.43       
H           82.70314    -9.93881    54.09203    
H           79.65       -9.78       51.94       
H           82.31       -10.12      57.32       
C           79.03       -9.77       52.84       
S           76.86       -9.61       54.37       
C           77.66       -9.48       52.82       
C           83.59       -10.82      69.0        
C           82.4        -10.21      68.64       
C           84.45       -11.38      68.0        
C           84.16       -11.27      66.66       
C           82.83       -10.83      66.33       
C           82.04       -10.21      67.32       
N           84.91       -11.55      65.56       
C           84.15       -11.45      64.39       
C           82.71       -11.0       64.82       
O           84.66       -11.75      63.35       
C           86.19       -12.26      65.58       
C           81.7        -10.73      63.98       
C           81.62       -10.54      62.49       
C           80.29       -10.18      62.16       
N           79.51       -10.21      63.3        
C           80.26       -10.55      64.45       
C           82.52       -10.51      61.41       
O           79.76       -10.77      65.58       
C           78.11       -9.8        63.27       
H           81.08       -9.72       67.09       
H           85.45       -11.76      68.36       
H           81.8        -9.77       69.38       
H           78.84       -9.7        60.64       
H           83.58       -10.77      61.53       
H           82.75       -10.5       59.31       
H           86.9        -11.72      64.93       
H           86.6        -12.22      66.57       
H           86.07412    -13.31017   65.31203    
H           77.68       -10.11      64.13       
H           78.00188    -8.71883    63.18351    
H           77.57       -10.22      62.42       
C           82.09       -10.31      60.09       
C           79.87       -9.86       60.86       
C           80.8        -9.99       59.81       
C           86.69       -11.34      76.09       
S           86.86       -12.35      74.64       
C           85.75       -10.37      75.95       
C           85.18       -10.31      74.64       
C           85.8        -11.3       73.82       
N           84.25       -9.62       73.88       
C           84.18       -10.22      72.66       
C           85.24       -11.08      72.57       
C           83.69       -8.31       74.27       
H           82.78       -8.15       73.65       
H           84.4        -7.49       74.07       
H           83.37386    -8.2257     75.30974    
H           82.71       -9.31       71.2        
H           85.47       -9.64       76.76       
C           83.54       -9.96       71.39       
S           85.47       -11.65      70.94       
C           84.1        -10.71      70.37       
C           91.38       -15.99      84.92       
C           91.53       -14.6       84.77       
C           90.43       -16.71      84.1        
C           89.76       -15.98      83.15       
C           89.85       -14.59      83.06       
C           90.76       -13.96      83.82       
N           88.71       -16.44      82.35       
C           88.31       -15.43      81.53       
C           89.0        -14.14      81.93       
O           87.41       -15.6       80.65       
C           88.48       -17.88      81.92       
C           88.76       -13.01      81.22       
C           88.4        -12.76      79.83       
C           88.09       -11.43      79.65       
N           88.25       -10.8       80.9        
C           88.77       -11.69      81.87       
C           88.3        -13.57      78.68       
O           89.14       -11.43      82.97       
C           88.36       -9.41       81.15       
H           90.83       -12.92      83.77       
H           90.26       -17.74      84.13       
H           92.24       -14.0       85.27       
H           87.29       -9.89       78.39       
H           88.59       -14.59      78.71       
H           87.65       -13.71      76.66       
H           89.24       -18.61      82.2        
H           88.32       -17.93      80.84       
H           87.52462    -18.19601   82.3389     
H           87.81       -9.09       82.06       
H           89.39118    -9.05705    81.13616    
H           87.89       -8.92       80.24       
C           87.81       -13.03      77.48       
C           87.51       -10.94      78.5        
C           87.38       -11.73      77.34       
C           94.92       -20.33      90.28       
S           93.61       -20.61      89.23       
C           95.45       -19.0       90.02       
C           94.77       -18.34      88.97       
C           93.82       -19.11      88.42       
N           94.86       -17.12      88.38       
C           93.9        -17.07      87.46       
C           93.22       -18.3       87.45       
C           95.64       -15.98      89.02       
H           96.63       -16.32      89.21       
H           95.83       -15.18      88.31       
H           95.22859    -15.59024   89.95109    
H           93.77       -15.09      86.5        
H           96.37       -18.6       90.59       
C           93.35       -16.11      86.59       
S           92.04       -18.36      86.15       
C           92.25       -16.69      85.85       
C           96.52       -25.8       99.8        
C           97.3        -24.65      99.54       
C           95.55       -26.2       98.88       
C           95.31       -25.5       97.78       
C           96.14       -24.42      97.41       
C           97.15       -23.97      98.28       
N           94.41       -25.87      96.8        
C           94.54       -24.97      95.76       
C           95.76       -24.02      96.03       
O           93.81       -24.89      94.75       
C           93.65       -27.11      96.67       
C           96.28       -23.12      95.08       
C           95.65       -22.44      93.89       
C           96.64       -21.72      93.2        
N           97.88       -21.93      93.92       
C           97.73       -22.71      95.01       
C           94.36       -22.36      93.28       
O           98.61       -22.79      95.85       
C           99.16       -21.44      93.52       
H           97.68       -23.02      98.07       
H           95.02       -27.15      99.08       
H           98.15       -24.35      100.18      
H           97.27       -20.39      91.54       
H           93.52       -22.76      93.84       
H           93.07       -21.77      91.64       
H           94.23       -28.04      96.75       
H           93.11       -27.01      95.69       
H           92.81688    -27.09551   97.37271    
H           99.14       -21.22      92.43       
H           99.41837    -20.50429   94.01578    
H           99.92       -22.08      93.79       
C           94.11       -21.78      92.08       
C           96.45       -20.96      92.04       
C           95.12       -21.04      91.47       
C           97.36       -30.65      105.95      
S           96.12       -30.59      104.68      
C           98.29       -29.65      105.75      
C           98.01       -28.87      104.64      
C           96.81       -29.2       103.94      
N           98.58       -27.77      104.0       
C           97.82       -27.42      102.94      
C           96.75       -28.31      102.81      
C           99.94       -27.46      104.27      
H           100.37      -28.04      105.09      
H           100.57      -27.71      103.38      
H           100.03779   -26.38435   104.41668   
H           98.57       -25.73      101.74      
H           99.25       -29.51      106.33      
C           97.79       -26.48      101.86      
S           95.77       -27.9       101.44      
C           96.79       -26.61      100.96      
C           98.54       -39.49      112.69      
C           99.51       -38.55      112.57      
C           97.3        -39.27      112.14      
C           97.07       -38.11      111.42      
C           98.11       -37.18      111.11      
C           99.32       -37.41      111.82      
N           95.9        -37.79      110.73      
C           96.07       -36.7       109.98      
C           97.51       -36.17      110.24      
O           95.07       -36.2       109.39      
C           94.72       -38.66      110.7       
C           98.02       -34.97      109.69      
C           97.54       -33.98      108.69      
C           98.53       -32.87      108.72      
N           99.54       -33.1       109.6       
C           99.35       -34.35      110.22      
C           96.42       -33.79      107.78      
O           100.14      -34.69      111.07      
C           100.71      -32.34      109.95      
H           100.22      -36.9       111.58      
H           96.56       -40.08      112.18      
H           100.42      -38.75      113.05      
H           98.98       -30.9       107.97      
H           95.65       -34.48      107.62      
H           95.64       -32.76      106.09      
H           95.08       -39.67      110.59      
H           94.11       -38.41      109.89      
H           94.09036    -38.51143   111.57726   
H           101.22      -32.7       110.79      
H           101.40173   -32.14746   109.12991   
H           100.41      -31.38      110.25      
C           96.41       -32.8       106.87      
C           98.34       -31.77      107.91      
C           97.35       -31.72      106.93      
C           99.89       -46.93      114.33      
S           98.39       -46.08      113.97      
C           101.0       -46.05      114.31      
C           100.63      -44.75      113.96      
C           99.25       -44.64      113.79      
N           101.3       -43.52      113.82      
C           100.29      -42.6       113.58      
C           99.02       -43.24      113.61      
C           102.71      -43.24      113.7       
H           102.94      -42.15      114.03      
H           103.0       -43.24      112.65      
H           103.28375   -43.86524   114.38409   
H           101.05      -40.63      113.1       
H           102.02      -46.39      114.46      
C           100.18      -41.27      113.19      
S           97.69       -42.21      113.35      
C           98.86       -40.85      113.12      
C           100.47      -57.51      117.89      
C           101.57      -56.76      117.43      
C           99.19       -57.03      117.56      
C           99.05       -55.78      116.94      
C           100.22      -54.99      116.53      
C           101.45      -55.58      116.75      
N           97.89       -55.15      116.48      
C           98.19       -53.85      116.03      
C           99.71       -53.65      116.02      
O           97.29       -53.21      115.51      
C           96.55       -55.72      116.47      
C           100.36      -52.53      115.46      
C           99.92       -51.16      115.14      
C           100.98      -50.44      114.61      
N           102.07      -51.23      114.48      
C           101.81      -52.45      115.02      
C           98.79       -50.38      115.3       
O           102.67      -53.33      114.93      
C           103.42      -50.84      113.95      
H           102.32      -54.99      116.57      
H           98.36       -57.61      117.76      
H           102.65      -57.09      117.61      
H           101.82      -48.65      113.82      
H           97.86       -50.84      115.62      
H           97.89       -48.33      115.26      
H           96.7        -56.73      116.23      
H           95.99       -55.4       115.6       
H           95.99517    -55.44258   117.36627   
H           103.63      -49.88      114.33      
H           103.39256   -50.63422   112.87995   
H           104.15      -51.57      114.23      
C           98.77       -48.96      115.03      
C           100.92      -49.1       114.23      
C           99.85       -48.35      114.52      
C           100.67      -63.65      122.58      
S           99.32       -62.61      122.18      
C           101.81      -63.32      121.91      
C           101.59      -62.14      121.14      
C           100.34      -61.59      121.24      
N           102.48      -61.31      120.49      
C           101.64      -60.43      119.84      
C           100.35      -60.54      120.37      
C           103.94      -61.24      120.44      
H           104.15      -60.24      120.14      
H           104.43      -61.77      119.6       
H           104.39839   -61.44373   121.40771   
H           102.72      -59.15      118.47      
H           102.74      -63.92      121.96      
C           101.8       -59.43      118.87      
S           99.33       -59.39      119.56      
C           100.7       -58.7       118.75      
C           99.32       -72.59      129.32      
C           100.46      -71.82      129.37      
C           98.33       -72.22      128.42      
C           98.46       -71.12      127.58      
C           99.64       -70.28      127.55      
C           100.56      -70.61      128.53      
N           97.51       -70.64      126.59      
C           98.14       -69.61      125.87      
C           99.57       -69.35      126.38      
O           97.57       -69.01      124.91      
C           96.21       -71.19      126.34      
C           100.5       -68.43      125.88      
C           100.3       -67.17      125.15      
C           101.58      -66.56      124.79      
N           102.61      -67.35      125.39      
C           102.04      -68.52      126.0       
C           99.2        -66.4       124.63      
O           102.74      -69.33      126.52      
C           103.99      -67.47      124.91      
H           101.37      -69.94      128.71      
H           97.4        -72.79      128.39      
H           101.18      -72.06      130.08      
H           102.78      -64.99      123.84      
H           98.21       -66.76      124.87      
H           98.41       -64.77      123.43      
H           95.88       -71.9       127.1       
H           95.53       -70.37      126.35      
H           96.17299    -71.65635   125.35549   
H           103.98      -67.31      123.81      
H           104.6851    -66.85045   125.47666   
H           104.29      -68.52      124.94      
C           99.33       -65.26      123.8       
C           101.74      -65.38      124.11      
C           100.58      -64.79      123.48      
C           99.86       -77.68      135.13      
S           101.03      -76.7       134.32      
C           98.57       -77.46      134.7       
C           98.49       -76.58      133.59      
C           99.74       -76.09      133.25      
N           97.55       -75.94      132.75      
C           98.26       -75.14      131.81      
C           99.63       -75.23      132.1       
C           96.11       -76.03      132.72      
H           95.73       -75.83      131.69      
H           95.61       -75.23      133.27      
H           95.77279    -76.9914    133.10743   
H           97.01       -74.04      130.27      
H           97.74       -77.94      135.1       
C           98.01       -74.27      130.68      
S           100.51      -74.23      131.06      
C           99.14       -73.66      130.22      
C           102.59      -84.21      143.66      
C           101.78      -84.65      142.63      
C           103.11      -82.93      143.52      
C           102.72      -82.12      142.51      
C           101.78      -82.47      141.55      
C           101.37      -83.81      141.65      
N           103.13      -80.77      142.35      
C           102.48      -80.14      141.27      
C           101.53      -81.27      140.7       
O           102.64      -78.96      141.05      
C           104.09      -80.07      143.14      
C           100.75      -81.18      139.59      
C           100.78      -80.15      138.51      
C           99.53       -80.3       137.81      
N           98.84       -81.35      138.39      
C           99.48       -82.0       139.4       
C           101.62      -79.12      138.09      
O           99.02       -82.98      140.05      
C           97.48       -81.7       138.08      
H           100.59      -84.24      141.05      
H           103.82      -82.58      144.27      
H           101.35      -85.66      142.72      
H           98.4        -79.87      136.03      
H           102.52      -78.95      138.56      
H           102.09      -77.63      136.76      
H           103.73      -79.1       143.4       
H           104.32      -80.52      144.08      
H           105.00532   -79.94843   142.56077   
H           96.99       -80.95      137.45      
H           97.40764    -82.66243   137.57346   
H           96.93       -81.57      138.95      
C           101.32      -78.4       136.95      
C           99.23       -79.52      136.67      
C           100.18      -78.56      136.22      
C           103.76      -89.59      149.33      
S           102.54      -89.46      148.11      
C           104.64      -88.54      149.22      
C           104.27      -87.59      148.23      
C           103.13      -87.97      147.47      
N           104.75      -86.37      147.78      
C           103.95      -86.04      146.69      
C           102.95      -86.97      146.47      
C           105.7       -85.49      148.41      
H           105.82      -84.59      147.83      
H           106.68      -85.9       148.54      
H           105.28604   -85.15593   149.36138   
H           104.61      -84.14      145.83      
H           105.35      -88.37      150.01      
C           103.93      -84.96      145.79      
S           102.08      -86.59      145.05      
C           102.97      -85.12      144.79      
H           49.45       26.51       38.12       
H           103.83      -90.38      150.06      
