512

C           58.64       9.62        44.3        
C           57.33       9.73        43.79       
C           59.48       10.7        44.26       
C           59.05       11.91       43.69       
C           57.71       12.07       43.19       
C           56.89       10.95       43.36       
N           59.82       13.09       43.56       
C           59.06       14.02       42.87       
C           57.64       13.39       42.55       
O           59.51       15.14       42.66       
C           61.08       13.39       44.21       
C           56.57       14.09       41.93       
C           56.29       15.53       41.87       
C           55.19       15.7        40.93       
N           54.76       14.5        40.54       
C           55.43       13.5        41.23       
C           56.88       16.71       42.28       
O           55.34       12.28       40.98       
C           53.74       14.25       39.51       
H           55.89       11.08       43.0        
H           60.44       10.54       44.77       
H           56.64       8.91        43.78       
H           53.7        17.02       39.93       
H           57.8        16.73       42.79       
H           57.04       18.83       41.93       
H           61.74       12.5        44.23       
H           61.62       14.07       43.54       
H           60.83889    13.65948    45.23827    
H           53.83       14.98       38.6        
H           52.73138    14.42047    39.88646    
H           53.81       13.21       39.11       
C           56.38       17.93       41.88       
C           54.62       16.93       40.55       
C           55.32       18.11       41.03       
C           61.26       2.61        47.01       
S           61.79       4.23        47.45       
C           60.14       2.68        46.18       
C           59.81       4.01        45.81       
C           60.72       5.05        46.28       
N           58.92       4.55        44.84       
C           59.06       5.91        44.88       
C           60.16       6.28        45.79       
C           57.73       3.81        44.43       
H           57.24       4.37        43.65       
H           57.03       3.64        45.28       
H           57.96999    2.91356     43.85825    
H           57.62       7.06        43.64       
H           59.67       1.78        45.81       
C           58.38       7.09        44.45       
S           60.36       8.01        45.78       
C           59.0        8.32        44.73       
C           66.51       -6.26       51.79       
C           65.52       -6.48       50.84       
C           66.54       -4.99       52.35       
C           65.78       -3.99       51.78       
C           64.82       -4.11       50.76       
C           64.78       -5.41       50.29       
N           65.91       -2.64       52.19       
C           65.14       -1.9        51.34       
C           64.27       -2.79       50.46       
O           65.03       -0.7        51.59       
C           67.08       -2.11       52.93       
C           63.37       -2.24       49.54       
C           63.07       -0.85       48.96       
C           61.9        -0.93       48.16       
N           61.47       -2.28       48.07       
C           62.35       -3.07       48.84       
C           63.7        0.43        49.04       
O           62.06       -4.21       49.05       
C           60.4        -2.88       47.23       
H           63.96       -5.67       49.59       
H           67.22       -4.88       53.19       
H           65.33       -7.45       50.42       
H           60.59       0.0         46.75       
H           64.63       0.49        49.53       
H           63.63       2.48        48.5        
H           66.83       -1.87       53.95       
H           67.72       -2.95       53.13       
H           67.63168    -1.40469    52.30849    
H           59.53       -2.33       47.17       
H           60.77557    -3.21224    46.26218    
H           60.13       -3.77       47.73       
C           63.14       1.52        48.34       
C           61.4        0.14        47.47       
C           61.95       1.43        47.66       
C           71.63       -11.2       54.84       
S           71.57       -9.47       54.67       
C           70.4        -11.78      54.43       
C           69.45       -10.86      53.83       
C           70.05       -9.58       53.92       
N           68.23       -10.83      53.2        
C           68.03       -9.47       52.87       
C           69.13       -8.71       53.31       
C           67.3        -11.91      52.93       
H           66.46       -11.51      52.36       
H           66.9        -12.36      53.84       
H           67.76362    -12.72857   52.37946    
H           66.0        -9.04       52.07       
H           70.22       -12.88      54.49       
C           66.98       -8.69       52.33       
S           68.8        -7.04       53.01       
C           67.21       -7.37       52.29       
C           77.87       -15.54      62.48       
C           76.77       -16.09      61.9        
C           78.53       -14.6       61.78       
C           78.06       -14.24      60.5        
C           76.85       -14.76      59.94       
C           76.22       -15.7       60.7        
N           78.58       -13.3       59.61       
C           77.68       -13.08      58.62       
C           76.59       -14.12      58.67       
O           77.81       -12.16      57.78       
C           79.96       -13.0       59.59       
C           75.47       -14.25      57.78       
C           74.77       -13.23      56.9        
C           73.63       -13.91      56.33       
N           73.6        -15.2       56.76       
C           74.65       -15.52      57.62       
C           74.8        -11.84      56.73       
O           74.87       -16.63      57.96       
C           72.62       -16.18      56.35       
H           75.33       -16.19      60.3        
H           79.41       -14.23      62.24       
H           76.25       -16.9       62.42       
H           71.72       -13.81      55.32       
H           75.65       -11.28      57.09       
H           74.03       -10.18      55.74       
H           80.16       -12.02      59.91       
H           80.5        -13.66      60.21       
H           80.42233    -13.11208   58.60929    
H           72.92       -17.14      56.71       
H           71.63817    -16.02208   56.79629    
H           72.62       -16.18      55.28       
C           73.86       -11.22      55.97       
C           72.67       -13.25      55.56       
C           72.77       -11.87      55.44       
C           81.38       -17.78      69.14       
S           81.06       -16.21      68.52       
C           80.69       -18.83      68.5        
C           80.09       -18.33      67.33       
C           80.25       -16.92      67.12       
N           79.38       -18.81      66.19       
C           79.16       -17.71      65.33       
C           79.59       -16.54      65.93       
C           79.12       -20.24      66.01       
H           78.27       -20.32      65.3        
H           78.77       -20.8       66.92       
H           80.05201    -20.79073   65.88291    
H           77.97       -18.25      63.57       
H           80.65       -19.85      68.83       
C           78.48       -17.43      64.14       
S           79.23       -15.14      64.98       
C           78.41       -16.09      63.75       
C           85.07       -19.23      79.44       
C           83.88       -18.55      79.15       
C           85.95       -19.47      78.36       
C           85.63       -18.93      77.16       
C           84.43       -18.32      76.81       
C           83.53       -18.13      77.86       
N           86.5        -19.03      76.08       
C           85.79       -18.94      74.91       
C           84.49       -18.17      75.32       
O           86.29       -18.86      73.78       
C           87.9        -19.49      76.01       
C           83.6        -17.66      74.41       
C           83.31       -17.83      72.97       
C           82.2        -17.02      72.73       
N           81.85       -16.23      73.78       
C           82.7        -16.49      74.83       
C           83.77       -18.68      71.92       
O           82.49       -16.02      75.93       
C           80.63       -15.41      73.83       
H           82.55       -17.7       77.64       
H           86.8        -20.08      78.48       
H           83.03       -18.47      79.9        
H           80.72       -16.26      71.25       
H           84.44       -19.49      72.14       
H           83.51       -19.21      69.87       
H           88.62       -19.0       75.3        
H           88.27       -19.36      77.02       
H           87.90721    -20.57805   75.94515    
H           80.26       -15.34      74.86       
H           80.80888    -14.44404   73.35775    
H           79.82       -15.92      73.28       
C           83.14       -18.66      70.69       
C           81.53       -16.96      71.47       
C           82.05       -17.79      70.41       
C           86.59       -22.72      86.31       
S           87.6        -21.62      85.41       
C           85.38       -22.81      85.77       
C           85.29       -22.11      84.52       
C           86.46       -21.47      84.13       
N           84.32       -21.91      83.58       
C           84.88       -21.15      82.58       
C           86.24       -20.84      82.84       
C           82.95       -22.39      83.58       
H           82.33       -21.96      82.79       
H           82.58       -22.35      84.55       
H           82.97093    -23.46459   83.39858    
H           83.31       -20.62      81.02       
H           84.65       -23.31      86.33       
C           84.36       -20.54      81.34       
S           86.78       -19.77      81.58       
C           85.28       -19.89      80.69       
C           91.02       -28.17      94.98       
C           91.72       -27.43      94.01       
C           89.65       -28.35      94.74       
C           89.08       -27.7       93.68       
C           89.74       -26.91      92.75       
C           91.12       -26.88      92.89       
N           87.72       -27.74      93.28       
C           87.47       -26.97      92.14       
C           88.78       -26.3       91.81       
O           86.38       -26.79      91.59       
C           86.65       -28.46      93.9        
C           89.0        -25.35      90.79       
C           88.27       -24.84      89.6        
C           88.95       -23.81      88.95       
N           90.19       -23.67      89.61       
C           90.2        -24.48      90.74       
C           87.04       -25.19      89.02       
O           91.14       -24.41      91.43       
C           91.39       -23.11      89.15       
H           91.83       -26.42      92.24       
H           89.05       -28.96      95.42       
H           92.83       -27.38      94.04       
H           88.96       -22.09      87.65       
H           86.49       -26.05      89.32       
H           85.51       -24.8       87.55       
H           86.99       -29.33      94.45       
H           86.02       -28.95      93.14       
H           86.01945    -27.78646   94.48039    
H           91.87       -22.49      89.93       
H           92.03941    -23.85117   88.68412    
H           91.12       -22.4       88.33       
C           86.5        -24.47      87.94       
C           88.44       -23.04      87.93       
C           87.14       -23.35      87.46       
C           94.34       -30.84      101.52      
S           92.63       -30.69      101.19      
C           95.13       -30.41      100.56      
C           94.38       -29.87      99.48       
C           92.97       -30.06      99.63       
N           94.7        -29.27      98.28       
C           93.42       -29.09      97.6        
C           92.37       -29.54      98.37       
C           96.0        -29.23      97.66       
H           96.51       -30.23      97.61       
H           95.87       -29.02      96.62       
H           96.65016    -28.47981   98.11011    
H           93.74       -28.2       95.69       
H           96.18       -30.56      100.61      
C           93.05       -28.57      96.39       
S           90.83       -29.34      97.51       
C           91.71       -28.7       96.15       
C           97.16       -37.1       110.33      
C           97.84       -35.86      110.03      
C           96.1        -37.42      109.48      
C           95.69       -36.56      108.45      
C           96.43       -35.39      108.18      
C           97.5        -35.04      108.98      
N           94.6        -36.69      107.56      
C           94.61       -35.66      106.6       
C           95.81       -34.79      107.02      
O           93.85       -35.67      105.66      
C           93.57       -37.71      107.54      
C           96.16       -33.73      106.25      
C           95.49       -33.03      105.14      
C           96.39       -32.23      104.45      
N           97.62       -32.2       105.13      
C           97.55       -33.03      106.24      
C           94.1        -32.99      104.69      
O           98.5        -33.21      106.97      
C           98.91       -31.86      104.6       
H           97.99       -34.08      108.93      
H           95.57       -38.31      109.52      
H           98.66       -35.48      110.68      
H           96.78       -31.0       102.77      
H           93.3        -33.42      105.31      
H           92.8        -32.18      103.32      
H           93.97       -38.71      107.54      
H           92.97       -37.63      106.71      
H           92.92103    -37.54776   108.40059   
H           98.87       -32.0       103.5       
H           99.30223    -30.91272   104.97003   
H           99.6        -32.64      104.89      
C           93.81       -32.19      103.6       
C           96.02       -31.5       103.26      
C           94.74       -31.58      102.73      
C           98.51       -42.01      116.21      
S           97.03       -41.85      115.41      
C           99.35       -41.03      116.04      
C           98.97       -40.17      115.07      
C           97.75       -40.53      114.5       
N           99.51       -39.13      114.38      
C           98.66       -38.89      113.31      
C           97.51       -39.67      113.36      
C           100.78      -38.56      114.56      
H           101.45      -39.43      114.7       
H           101.12      -37.96      113.74      
H           100.84989   -38.07075   115.53152   
H           99.39       -37.17      111.98      
H           100.39      -41.02      116.4       
C           98.66       -37.92      112.25      
S           96.39       -39.18      112.13      
C           97.52       -37.95      111.47      
C           100.55      -51.8       121.59      
C           101.49      -50.77      121.55      
C           99.24       -51.58      121.0       
C           98.96       -50.33      120.44      
C           99.92       -49.3       120.37      
C           101.19      -49.56      120.84      
N           97.73       -49.79      120.09      
C           97.84       -48.42      119.7       
C           99.34       -48.02      119.87      
O           96.83       -47.78      119.44      
C           96.53       -50.52      119.95      
C           99.77       -46.72      119.57      
C           99.14       -45.64      118.7       
C           100.15      -44.63      118.52      
N           101.33      -45.07      119.18      
C           101.13      -46.21      119.91      
C           98.05       -45.5       117.9       
O           102.04      -46.65      120.55      
C           102.62      -44.38      119.1       
H           101.95      -48.84      120.87      
H           98.51       -52.37      121.11      
H           102.47      -50.96      121.99      
H           100.81      -42.73      117.66      
H           97.39       -46.28      117.8       
H           97.01       -44.25      116.47      
H           96.69       -51.43      119.26      
H           95.72       -49.91      119.46      
H           96.011      -50.73452   120.8842    
H           103.24      -44.43      119.94      
H           103.20708   -44.57098   118.20169   
H           102.28      -43.32      119.19      
C           97.87       -44.29      117.15      
C           100.03      -43.45      117.77      
C           98.75       -43.24      117.1       
C           101.73      -59.17      124.18      
S           100.31      -58.46      123.33      
C           102.62      -58.18      124.55      
C           102.2       -56.87      124.13      
C           101.02      -56.88      123.31      
N           102.77      -55.59      124.17      
C           101.87      -54.72      123.51      
C           100.86      -55.56      122.91      
C           104.2       -55.27      124.49      
H           104.3       -54.17      124.64      
H           104.84      -55.41      123.6       
H           104.5348    -55.79001   125.38755   
H           102.82      -52.73      123.13      
H           103.53      -58.38      125.05      
C           101.9       -53.39      123.05      
S           99.74       -54.4       122.08      
C           100.84      -53.07      122.27      
C           102.37      -70.17      126.23      
C           103.42      -69.42      125.89      
C           101.15      -69.51      126.18      
C           101.08      -68.15      125.9       
C           102.18      -67.35      125.76      
C           103.35      -68.06      125.75      
N           99.91       -67.38      125.94      
C           100.26      -66.03      125.79      
C           101.77      -65.9       125.73      
O           99.38       -65.16      125.86      
C           98.69       -67.81      125.41      
C           102.43      -64.7       125.54      
C           102.0       -63.36      125.11      
C           103.08      -62.46      125.28      
N           104.22      -63.17      125.64      
C           103.91      -64.47      125.84      
C           100.75      -62.74      124.71      
O           104.75      -65.29      126.24      
C           105.63      -62.65      125.75      
H           104.25      -67.45      125.72      
H           100.23      -70.14      126.33      
H           104.45      -69.86      125.89      
H           103.91      -60.41      124.97      
H           99.86       -63.37      124.45      
H           99.82       -61.08      123.94      
H           98.89       -68.55      124.67      
H           98.2        -67.01      124.83      
H           98.02559    -68.15634   126.20164   
H           105.69      -61.82      126.43      
H           105.98912   -62.25568   124.7994    
H           106.35      -63.48      125.99      
C           100.75      -61.38      124.37      
C           103.02      -61.07      124.97      
C           101.8       -60.57      124.58      
C           101.51      -77.01      129.67      
S           100.34      -75.91      128.85      
C           102.79      -76.77      129.21      
C           102.9       -75.48      128.6       
C           101.66      -74.93      128.32      
N           103.93      -74.65      128.08      
C           103.29      -73.58      127.51      
C           101.91      -73.78      127.68      
C           105.33      -74.85      128.1       
H           105.89      -73.99      127.77      
H           105.69      -75.66      127.5       
H           105.64176   -75.15467   129.09904   
H           104.64      -71.92      126.86      
H           103.67      -77.32      129.53      
C           103.6       -72.32      126.91      
S           100.99      -72.4       127.11      
C           102.46      -71.59      126.65      
C           99.94       -82.68      139.37      
C           101.12      -82.84      138.59      
C           98.89       -81.9       138.86      
C           99.13       -81.27      137.68      
C           100.24      -81.46      136.78      
C           101.28      -82.25      137.28      
N           98.18       -80.43      137.08      
C           98.71       -79.89      135.88      
C           100.03      -80.59      135.57      
O           98.1        -79.06      135.28      
C           96.82       -80.14      137.58      
C           100.76      -80.35      134.33      
C           100.71      -79.34      133.22      
C           101.71      -79.72      132.32      
N           102.46      -80.8       132.7       
C           101.94      -81.22      133.91      
C           99.94       -78.25      132.82      
O           102.3       -82.28      134.45      
C           103.39      -81.55      131.89      
H           102.17      -82.3       136.72      
H           97.93       -81.77      139.35      
H           101.9       -83.49      138.98      
H           102.77      -79.19      130.39      
H           99.22       -77.84      133.54      
H           99.61       -76.62      131.56      
H           96.75       -80.42      138.67      
H           96.65       -79.04      137.49      
H           96.12863    -80.80286   137.05969   
H           103.0       -81.65      130.9       
H           104.34536   -81.03078   131.81385   
H           103.41      -82.57      132.25      
C           100.2       -77.48      131.68      
C           101.91      -79.05      131.07      
C           101.13      -77.89      130.8       
C           100.3       -87.68      145.19      
S           101.54      -86.61      144.61      
C           99.07       -87.36      144.68      
C           99.14       -86.32      143.78      
C           100.39      -85.87      143.58      
N           98.23       -85.69      142.95      
C           99.01       -84.85      142.22      
C           100.29      -84.87      142.59      
C           96.77       -85.71      143.04      
H           96.27       -85.07      142.29      
H           96.48       -85.44      144.05      
H           96.48904    -86.70037   142.68178   
H           97.81       -84.01      140.76      
H           98.14       -87.89      144.94      
C           98.81       -84.07      141.13      
S           101.24      -83.83      141.62      
C           99.89       -83.41      140.64      
C           103.53      -95.79      152.24      
C           102.68      -95.98      151.15      
C           104.02      -94.48      152.56      
C           103.53      -93.4       151.81      
C           102.57      -93.57      150.75      
C           102.25      -94.88      150.46      
N           103.8       -92.05      151.94      
C           103.19      -91.29      151.0       
C           102.3       -92.19      150.16      
O           103.3       -90.14      150.94      
C           104.85      -91.56      152.86      
C           101.52      -91.76      149.04      
C           101.42      -90.55      148.24      
C           100.3       -90.72      147.35      
N           99.64       -91.87      147.58      
C           100.39      -92.59      148.48      
C           102.09      -89.34      148.1       
O           100.06      -93.69      148.76      
C           98.13       -92.12      147.43      
H           101.66      -95.05      149.6       
H           104.65      -94.3       153.4       
H           102.14      -96.89      151.02      
H           99.1        -90.03      145.73      
H           103.0       -89.15      148.68      
H           102.22      -87.42      147.05      
H           104.56      -90.52      153.22      
H           104.97      -92.11      153.82      
H           105.83253   -91.46744   152.39721   
H           97.65       -91.13      147.41      
H           97.87847    -92.5462    146.45882   
H           97.7        -92.63      148.3       
C           101.69      -88.4       147.09      
C           99.86       -89.76      146.45      
C           100.53      -88.58      146.32      
C           106.45      -101.05     157.38      
S           106.6       -99.33      157.35      
C           105.46      -101.47     156.45      
C           105.07      -100.4      155.62      
C           105.65      -99.16      155.93      
N           104.2       -100.25     154.48      
C           104.15      -98.95      154.15      
C           105.06      -98.25      154.94      
C           103.42      -101.28     153.85      
H           102.76      -100.86     153.12      
H           102.79      -101.66     154.68      
H           104.04522   -102.01179  153.33846   
H           102.72      -98.41      152.5       
H           105.21      -102.51     156.3       
C           103.51      -98.12      153.17      
S           105.03      -96.57      154.48      
C           104.0       -96.86      153.1       
H           54.9        19.13       40.78       
H           106.78      -101.75     158.14      
