512

C           55.55       3.29        21.07       
C           54.21       3.13        20.99       
C           56.15       4.45        20.66       
C           55.34       5.38        20.02       
C           53.94       5.29        19.94       
C           53.38       4.03        20.43       
N           55.78       6.57        19.53       
C           54.73       7.36        19.11       
C           53.45       6.51        19.32       
O           54.88       8.41        18.5        
C           57.08       7.21        19.67       
C           52.25       6.96        18.86       
C           51.66       8.29        18.54       
C           50.3        8.11        18.24       
N           50.01       6.75        18.2        
C           51.12       6.02        18.57       
C           52.1        9.63        18.58       
O           51.0        4.72        18.66       
C           48.74       6.12        18.23       
H           52.31       3.79        20.44       
H           57.26       4.5         20.78       
H           53.82       2.23        21.32       
H           48.43       9.09        17.74       
H           53.1        9.84        18.77       
H           51.64       11.73       18.27       
H           57.84       6.44        19.75       
H           57.29       7.88        18.78       
H           57.08       7.72846     20.6288     
H           48.06       6.6         17.6        
H           48.31218    6.02731     19.22824    
H           48.86       5.13        17.8        
C           51.26       10.67       18.25       
C           49.48       9.22        17.93       
C           49.97       10.55       17.81       
C           60.12       -2.03       24.75       
S           60.5        -0.39       24.24       
C           58.92       -2.47       24.2        
C           58.26       -1.41       23.45       
C           58.93       -0.15       23.46       
N           57.09       -1.31       22.73       
C           57.01       0.05        22.35       
C           58.16       0.78        22.76       
C           56.11       -2.33       22.36       
H           55.4        -1.95       21.58       
H           55.49       -2.61       23.24       
H           56.55608    -3.22924    21.93516    
H           55.16       0.34        21.28       
H           58.45       -3.44       24.4        
C           56.03       0.85        21.71       
S           58.03       2.42        22.2        
C           56.33       2.21        21.64       
C           66.3        -8.37       31.88       
C           65.12       -8.81       31.37       
C           66.66       -7.07       31.62       
C           65.84       -6.31       30.78       
C           64.64       -6.75       30.04       
C           64.24       -8.05       30.51       
N           66.08       -4.96       30.46       
C           65.12       -4.52       29.56       
C           64.28       -5.67       29.06       
O           65.12       -3.35       29.25       
C           66.99       -4.13       31.14       
C           63.29       -5.46       28.11       
C           62.73       -4.38       27.29       
C           61.53       -4.87       26.66       
N           61.37       -6.2        26.93       
C           62.3        -6.61       27.85       
C           63.07       -3.01       26.88       
O           62.3        -7.74       28.27       
C           60.31       -7.04       26.44       
H           63.33       -8.54       30.14       
H           67.57       -6.7        32.11       
H           64.84       -9.86       31.52       
H           59.85       -4.6        25.56       
H           63.88       -2.45       27.23       
H           62.46       -1.17       25.85       
H           66.61       -3.22       31.32       
H           67.18       -4.47       32.15       
H           67.92335    -4.17211    30.57859    
H           59.45       -6.5        26.09       
H           60.60144    -7.70819    25.62964    
H           59.94       -7.6        27.25       
C           62.24       -2.21       26.04       
C           60.76       -4.12       25.83       
C           61.05       -2.78       25.58       
C           70.96       -11.39      37.33       
S           71.15       -9.98       36.34       
C           70.05       -12.27      36.87       
C           69.21       -11.65      35.88       
C           69.75       -10.42      35.44       
N           68.0        -11.88      35.25       
C           67.8        -10.82      34.34       
C           68.87       -9.9        34.45       
C           67.19       -13.04      35.25       
H           66.34       -13.07      34.54       
H           66.65       -13.09      36.25       
H           67.80422    -13.93939   35.20613    
H           65.85       -10.87      33.2        
H           69.7        -13.07      37.55       
C           66.8        -10.4       33.34       
S           68.74       -8.61       33.27       
C           67.12       -9.2        32.75       
C           77.06       -11.79      46.75       
C           76.33       -12.89      46.33       
C           76.78       -10.6       46.12       
C           75.94       -10.55      44.98       
C           75.29       -11.72      44.43       
C           75.49       -12.88      45.23       
N           75.84       -9.46       44.13       
C           74.99       -9.74       43.07       
C           74.67       -11.23      43.16       
O           74.78       -9.0        42.12       
C           76.73       -8.3        44.22       
C           73.89       -11.94      42.17       
C           73.17       -11.54      40.95       
C           72.67       -12.71      40.35       
N           73.06       -13.85      41.06       
C           73.66       -13.49      42.21       
C           72.74       -10.32      40.43       
O           73.97       -14.32      43.01       
C           72.65       -15.19      40.7        
H           75.1        -13.87      44.96       
H           77.08       -9.71       46.6        
H           76.54       -13.81      46.86       
H           71.77       -13.7       38.59       
H           72.95       -9.39       40.88       
H           71.73       -9.4        38.84       
H           77.48       -8.39       45.03       
H           77.36       -8.16       43.35       
H           76.13606    -7.39494    44.34727    
H           73.53       -15.91      40.81       
H           71.78854    -15.55718   41.25783    
H           72.46       -15.23      39.64       
C           72.04       -10.34      39.2        
C           71.99       -12.69      39.09       
C           71.73       -11.45      38.5        
C           80.63       -12.79      53.56       
S           79.42       -13.69      52.73       
C           81.03       -11.74      52.8        
C           80.35       -11.58      51.58       
C           79.36       -12.57      51.48       
N           80.2        -10.67      50.55       
C           79.21       -11.21      49.72       
C           78.69       -12.34      50.24       
C           81.05       -9.62       50.14       
H           80.5        -8.96       49.55       
H           81.78       -10.05      49.46       
H           81.58113    -9.08887    50.92988    
H           79.01       -10.09      47.73       
H           81.85       -11.03      53.11       
C           78.74       -10.92      48.4        
S           77.47       -13.04      49.21       
C           77.74       -11.82      48.0        
C           84.51       -16.28      63.54       
C           84.66       -14.96      63.15       
C           84.06       -17.28      62.64       
C           83.74       -16.84      61.34       
C           83.81       -15.45      60.91       
C           84.26       -14.54      61.84       
N           83.32       -17.61      60.24       
C           82.94       -16.85      59.14       
C           83.22       -15.43      59.49       
O           82.4        -17.39      58.23       
C           83.45       -19.05      60.15       
C           83.03       -14.35      58.63       
C           82.15       -14.18      57.47       
C           82.28       -12.88      56.94       
N           83.12       -12.2       57.87       
C           83.66       -13.01      58.82       
C           81.25       -14.93      56.67       
O           84.5        -12.64      59.56       
C           83.38       -10.77      57.98       
H           84.29       -13.56      61.61       
H           84.16       -18.34      62.95       
H           84.88       -14.25      63.93       
H           82.15       -11.35      55.45       
H           80.91       -15.87      56.96       
H           80.03       -15.13      54.83       
H           83.63       -19.44      61.14       
H           82.55       -19.45      59.7        
H           84.22471    -19.40149   59.46854    
H           83.31       -10.51      59.02       
H           84.3861     -10.50633   57.65389    
H           82.62       -10.27      57.37       
C           80.71       -14.46      55.43       
C           81.86       -12.43      55.74       
C           81.11       -13.24      54.89       
C           86.1        -19.15      70.74       
S           86.09       -19.94      69.18       
C           85.65       -17.82      70.65       
C           85.42       -17.44      69.31       
C           85.61       -18.46      68.38       
N           85.01       -16.3       68.67       
C           84.96       -16.56      67.3        
C           85.34       -17.9       67.1        
C           84.41       -15.2       69.33       
H           84.24       -14.41      68.62       
H           85.14       -14.85      70.03       
H           83.46371    -15.50339   69.77786    
H           84.28       -14.94      65.96       
H           85.47       -17.2       71.55       
C           84.53       -15.96      66.14       
S           85.23       -18.21      65.41       
C           84.64       -16.67      64.93       
C           87.45       -25.39      79.78       
C           87.38       -24.01      79.92       
C           87.27       -25.89      78.52       
C           87.14       -25.09      77.44       
C           86.91       -23.72      77.57       
C           87.07       -23.22      78.84       
N           87.07       -25.5       76.1        
C           86.86       -24.36      75.3        
C           86.89       -23.11      76.22       
O           86.71       -24.43      74.07       
C           87.66       -26.71      75.56       
C           86.74       -21.82      75.78       
C           86.82       -21.31      74.41       
C           86.31       -19.96      74.43       
N           86.17       -19.51      75.78       
C           86.29       -20.62      76.6        
C           87.2        -21.74      73.09       
O           85.8        -20.54      77.65       
C           86.07       -18.2       76.35       
H           87.15       -22.14      78.91       
H           87.23       -27.0       78.38       
H           87.59       -23.51      80.87       
H           85.5        -18.36      73.31       
H           87.64       -22.73      73.01       
H           87.22       -21.45      71.06       
H           88.14       -27.2       76.37       
H           88.34       -26.34      74.87       
H           86.98684    -27.42437   75.08604    
H           85.44       -18.27      77.29       
H           86.98887    -17.61659   76.40834    
H           85.35       -17.65      75.68       
C           87.0        -20.98      71.99       
C           86.05       -19.29      73.24       
C           86.42       -19.76      71.99       
C           89.88       -30.63      85.11       
S           89.55       -30.79      83.39       
C           89.75       -29.3       85.5        
C           89.25       -28.46      84.45       
C           89.08       -29.13      83.25       
N           88.79       -27.16      84.4        
C           88.47       -26.92      83.03       
C           88.63       -28.13      82.38       
C           89.04       -26.1       85.36       
H           88.71       -25.18      84.97       
H           88.43       -26.31      86.31       
H           90.09035    -25.94001   85.60346    
H           87.83       -24.85      82.56       
H           89.89       -29.02      86.56       
C           88.04       -25.84      82.24       
S           88.2        -27.94      80.72       
C           87.9        -26.21      80.91       
C           94.11       -38.95      91.47       
C           94.51       -37.63      91.61       
C           93.31       -39.27      90.38       
C           92.84       -38.19      89.54       
C           93.15       -36.78      89.78       
C           94.05       -36.58      90.81       
N           92.0        -38.37      88.34       
C           91.74       -37.07      87.83       
C           92.48       -36.04      88.67       
O           91.37       -36.89      86.66       
C           91.52       -39.55      87.76       
C           92.43       -34.72      88.25       
C           91.65       -33.88      87.36       
C           92.08       -32.54      87.38       
N           93.09       -32.46      88.29       
C           93.47       -33.74      88.69       
C           90.46       -34.11      86.65       
O           94.43       -33.82      89.4        
C           93.98       -31.33      88.54       
H           94.45       -35.67      90.99       
H           93.08       -40.27      90.14       
H           95.31       -37.46      92.3        
H           91.75       -30.53      87.06       
H           89.89       -35.0       86.69       
H           89.21       -33.19      85.11       
H           92.26       -40.31      88.0        
H           91.43       -39.45      86.66       
H           90.60231    -39.86301   88.25797    
H           94.78       -31.58      89.25       
H           94.45003    -30.8672    87.67225    
H           93.4        -30.64      89.13       
C           89.96       -33.03      85.81       
C           91.42       -31.5       86.81       
C           90.46       -31.72      85.83       
C           96.51       -45.24      95.4        
S           94.84       -44.73      94.99       
C           97.47       -44.32      95.02       
C           96.9        -43.21      94.31       
C           95.48       -43.26      94.29       
N           97.38       -42.06      93.66       
C           96.27       -41.36      93.25       
C           95.11       -42.11      93.59       
C           98.82       -41.87      93.34       
H           99.15       -42.8       92.82       
H           98.88       -41.14      92.52       
H           99.38542    -41.67174   94.25055    
H           96.8        -39.46      92.1        
H           98.54       -44.4       95.17       
C           96.07       -40.14      92.58       
S           93.78       -41.36      92.81       
C           94.72       -39.95      92.35       
C           98.53       -54.12      101.96      
C           99.44       -53.81      100.97      
C           97.29       -53.49      102.03      
C           97.05       -52.44      101.24      
C           97.95       -52.0       100.23      
C           99.16       -52.75      100.09      
N           96.02       -51.55      101.36      
C           96.12       -50.53      100.48      
C           97.32       -50.79      99.6        
O           95.22       -49.63      100.4       
C           95.03       -51.43      102.38      
C           97.73       -49.88      98.56       
C           97.14       -48.73      97.86       
C           98.09       -48.25      96.95       
N           99.16       -49.09      96.97       
C           99.08       -49.97      97.96       
C           95.91       -48.05      97.87       
O           100.0       -50.68      98.19       
C           100.37      -49.06      96.13       
H           99.8        -52.6       99.27       
H           96.57       -53.68      102.82      
H           100.41      -54.36      100.89      
H           98.72       -46.89      95.55       
H           95.16       -48.27      98.61       
H           94.65       -46.5       97.0        
H           94.67       -50.45      102.52      
H           95.55       -51.61      103.36      
H           94.23682    -52.16      102.21856   
H           101.19      -49.55      96.59       
H           100.21948   -49.47572   95.1337     
H           100.58      -48.03      95.99       
C           95.64       -46.96      97.02       
C           97.9        -47.15      96.15       
C           96.71       -46.47      96.19       
C           99.68       -59.49      107.3       
S           98.21       -59.05      106.4       
C           100.75      -58.77      106.93      
C           100.41      -57.79      105.93      
C           99.09       -57.8       105.63      
N           101.09      -56.81      105.2       
C           100.18      -56.27      104.4       
C           98.86       -56.81      104.68      
C           102.52      -56.73      104.96      
H           102.78      -56.07      104.16      
H           102.94      -57.72      104.71      
H           103.03785   -56.3871    105.85574   
H           101.05      -54.7       103.06      
H           101.77      -59.02      107.26      
C           100.15      -55.26      103.41      
S           97.64       -56.05      103.65      
C           98.88       -55.04      102.96      
C           100.09      -69.27      112.76      
C           101.24      -68.54      112.42      
C           98.92       -68.63      112.38      
C           98.85       -67.33      111.8       
C           100.04      -66.65      111.5       
C           101.26      -67.27      111.8       
N           97.68       -66.7       111.39      
C           98.08       -65.47      110.88      
C           99.61       -65.33      110.9       
O           97.22       -64.62      110.62      
C           96.38       -67.05      111.86      
C           100.31      -64.21      110.52      
C           99.88       -63.1       109.64      
C           100.9       -62.23      109.6       
N           102.04      -62.63      110.3       
C           101.76      -63.85      110.88      
C           98.77       -62.78      108.83      
O           102.51      -64.42      111.71      
C           103.38      -61.98      110.33      
H           102.19      -66.8       111.49      
H           97.99       -69.18      112.67      
H           102.2       -69.03      112.55      
H           101.65      -60.27      108.98      
H           97.92       -63.43      108.73      
H           97.91       -61.46      107.35      
H           95.63       -66.27      111.59      
H           96.38       -67.27      112.93      
H           96.02512    -67.88041   111.24961   
H           103.22      -60.89      110.5       
H           103.966     -62.07767   109.41612   
H           103.88      -62.29      111.29      
C           98.76       -61.62      108.04      
C           100.89      -61.04      108.89      
C           99.81       -60.69      108.08      
C           99.49       -75.8       116.99      
S           98.39       -75.02      115.93      
C           100.64      -75.0       117.06      
C           100.62      -73.89      116.22      
C           99.45       -73.77      115.37      
N           101.35      -72.79      115.99      
C           100.78      -72.04      115.01      
C           99.54       -72.6       114.7       
C           102.67      -72.46      116.59      
H           102.8       -71.38      116.65      
H           103.5       -72.86      115.92      
H           102.79972   -72.76722   117.62773   
H           102.05      -70.35      114.4       
H           101.33      -75.14      117.85      
C           101.09      -70.85      114.3       
S           98.71       -71.52      113.61      
C           100.09      -70.49      113.51      
C           97.18       -85.48      122.09      
C           97.79       -84.4       122.8       
C           96.56       -85.22      120.81      
C           96.66       -83.98      120.27      
C           97.37       -82.93      120.93      
C           97.89       -83.16      122.23      
N           96.07       -83.49      119.16      
C           96.46       -82.18      118.86      
C           97.46       -81.76      119.98      
O           96.14       -81.57      117.84      
C           94.87       -84.14      118.46      
C           98.32       -80.63      119.97      
C           98.42       -79.38      119.12      
C           99.54       -78.55      119.57      
N           100.09      -79.15      120.61      
C           99.4        -80.31      120.98      
C           97.76       -78.93      117.99      
O           99.87       -80.98      121.85      
C           101.4       -78.75      121.19      
H           98.45       -82.42      122.78      
H           96.03       -86.09      120.27      
H           98.27       -84.55      123.76      
H           100.77      -76.7       119.22      
H           96.92       -79.42      117.53      
H           97.47       -77.36      116.73      
H           95.09       -84.29      117.41      
H           94.76       -85.11      118.92      
H           94.01856    -83.46304   118.52979   
H           101.99      -78.29      120.43      
H           101.1658    -78.06204   122.00238   
H           101.88      -79.68      121.42      
C           98.09       -77.73      117.45      
C           99.91       -77.3       118.96      
C           99.16       -76.94      117.81      
C           98.3        -92.15      125.97      
S           98.02       -90.46      126.52      
C           98.08       -92.27      124.63      
C           97.93       -91.01      124.0       
C           97.83       -89.95      124.85      
N           97.8        -90.48      122.69      
C           97.55       -89.13      122.8       
C           97.75       -88.73      124.08      
C           98.06       -91.25      121.47      
H           98.06       -90.55      120.64      
H           97.2        -91.87      121.19      
H           99.03326    -91.74029   121.49195   
H           97.21       -88.01      120.8       
H           98.16       -93.21      124.13      
C           97.18       -88.04      121.91      
S           97.68       -87.02      124.34      
C           97.19       -86.84      122.64      
C           98.91       -100.87     133.23      
C           99.58       -100.88     132.01      
C           98.3        -99.69      133.57      
C           98.14       -98.64      132.62      
C           98.79       -98.62      131.33      
C           99.58       -99.81      131.1       
N           97.4        -97.36      132.87      
C           97.44       -96.63      131.67      
C           98.49       -97.29      130.72      
O           96.82       -95.64      131.62      
C           97.44       -96.8       134.24      
C           98.92       -96.68      129.56      
C           98.6        -95.39      128.84      
C           99.34       -95.33      127.58      
N           100.06      -96.52      127.5       
C           99.84       -97.4       128.53      
C           97.75       -94.26      129.12      
O           100.34      -98.58      128.39      
C           101.12      -96.85      126.55      
H           100.1       -99.94      130.13      
H           97.79       -99.7       134.56      
H           100.33      -101.63     131.75      
H           99.84       -94.35      125.75      
H           97.09       -94.2       129.99      
H           97.07       -92.39      128.39      
H           96.59       -96.09      134.26      
H           97.32       -97.49      135.07      
H           98.39613    -96.29677   134.38378   
H           102.0       -97.25      127.03      
H           100.82284   -97.36649   125.63729   
H           101.6       -95.95      126.25      
C           97.68       -93.22      128.15      
C           99.28       -94.32      126.68      
C           98.43       -93.24      126.97      
C           98.89       -106.28     138.86      
S           99.15       -104.54     138.94      
C           98.6        -106.71     137.56      
C           98.58       -105.67     136.62      
C           98.93       -104.46     137.21      
N           98.47       -105.57     135.19      
C           98.73       -104.22     134.97      
C           98.91       -103.5      136.18      
C           98.56       -106.69     134.18      
H           98.69       -106.27     133.17      
H           97.52       -107.14     134.16      
H           99.37605    -107.37832  134.39998   
H           98.64       -103.65     132.76      
H           98.48       -107.73     137.32      
C           98.76       -103.37     133.83      
S           99.24       -101.83     135.81      
C           98.95       -102.03     134.12      
H           49.44       11.32       17.31       
H           98.85       -106.98     139.71      
