512

C           54.77       5.78        24.76       
C           53.45       5.47        24.44       
C           55.12       7.15        25.02       
C           54.16       8.1         25.0        
C           52.77       7.75        24.82       
C           52.44       6.39        24.51       
N           54.29       9.5         25.29       
C           53.04       10.09       25.34       
C           51.98       8.97        25.07       
O           52.93       11.31       25.49       
C           55.27       10.0        26.23       
C           50.6        9.18        25.0        
C           49.71       10.27       25.52       
C           48.42       10.01       25.08       
N           48.38       8.66        24.53       
C           49.66       8.19        24.29       
C           49.91       11.47       26.15       
O           49.82       7.2         23.59       
C           47.22       8.04        23.91       
H           51.47       5.98        24.57       
H           56.15       7.42        25.32       
H           53.21       4.4         24.27       
H           46.38       10.37       25.36       
H           50.89       11.67       26.48       
H           49.17       13.33       26.96       
H           56.22       9.53        26.13       
H           55.49       11.04       26.19       
H           54.92442    9.74081     27.23075    
H           46.43       8.71        23.71       
H           46.90311    7.21175     24.54379    
H           47.5        7.64        23.05       
C           48.92       12.42       26.31       
C           47.37       10.79       25.45       
C           47.64       12.11       26.04       
C           60.34       0.23        26.38       
S           60.52       1.85        25.85       
C           59.02       -0.14       26.4        
C           58.14       0.93        25.91       
C           58.8        2.11        25.59       
N           56.76       1.12        25.77       
C           56.55       2.44        25.35       
C           57.78       3.1         25.2        
C           55.78       0.27        26.46       
H           54.77       0.74        26.31       
H           56.03       0.34        27.51       
H           55.76508    -0.75941    26.10195    
H           54.36       3.04        25.29       
H           58.65       -0.96       27.02       
C           55.39       3.28        25.13       
S           57.45       4.76        24.7        
C           55.69       4.56        24.8        
C           67.47       -5.11       33.06       
C           66.25       -5.65       32.62       
C           67.95       -3.95       32.43       
C           67.15       -3.41       31.41       
C           65.87       -3.85       30.94       
C           65.44       -5.02       31.66       
N           67.46       -2.23       30.73       
C           66.53       -1.96       29.74       
C           65.37       -2.96       29.85       
O           66.66       -1.01       28.96       
C           68.38       -1.16       31.18       
C           64.19       -3.05       29.1        
C           63.52       -2.02       28.26       
C           62.24       -2.51       28.05       
N           62.09       -3.86       28.32       
C           63.23       -4.21       29.01       
C           63.76       -0.75       27.69       
O           63.44       -5.36       29.27       
C           60.99       -4.76       28.09       
H           64.45       -5.43       31.41       
H           68.83       -3.47       32.77       
H           65.97       -6.61       32.95       
H           60.32       -2.3        27.4        
H           64.68       -0.35       27.86       
H           63.0        0.86        26.65       
H           67.91       -0.21       31.21       
H           68.6        -1.4        32.18       
H           69.27227    -1.1672     30.55397    
H           60.08       -4.19       28.22       
H           61.10729    -5.14852    27.07837    
H           61.0        -5.54       28.82       
C           62.74       -0.07       27.05       
C           61.23       -1.77       27.5        
C           61.46       -0.57       26.93       
C           72.44       -7.71       38.51       
S           72.52       -6.27       37.48       
C           71.19       -8.38       38.58       
C           70.3        -7.68       37.67       
C           70.88       -6.64       36.92       
N           69.02       -7.89       37.08       
C           68.87       -7.06       35.98       
C           69.99       -6.21       35.91       
C           67.98       -8.88       37.36       
H           67.43       -9.04       36.46       
H           67.26       -8.52       38.13       
H           68.41613    -9.84521    37.61739    
H           66.81       -7.27       34.94       
H           70.98       -9.36       39.05       
C           67.84       -6.79       34.91       
S           69.81       -5.2        34.5        
C           68.18       -5.72       34.14       
C           79.09       -9.26       47.26       
C           78.43       -10.32      46.66       
C           79.14       -8.11       46.43       
C           78.76       -8.16       45.04       
C           78.09       -9.2        44.45       
C           77.97       -10.27      45.34       
N           78.76       -7.09       44.12       
C           78.16       -7.4        42.9        
C           77.57       -8.81       43.05       
O           78.3        -6.64       41.94       
C           78.81       -5.72       44.5        
C           76.61       -9.33       42.16       
C           75.69       -8.71       41.19       
C           74.85       -9.65       40.66       
N           75.19       -10.93      41.25       
C           76.32       -10.81      41.98       
C           75.4        -7.38       40.72       
O           76.74       -11.74      42.59       
C           74.91       -12.3       40.77       
H           77.51       -11.21      45.08       
H           79.59       -7.19       46.85       
H           78.19       -11.16      47.34       
H           73.14       -10.12      39.57       
H           76.03       -6.57       41.09       
H           74.05       -6.01       39.52       
H           79.19       -5.76       45.53       
H           79.67       -5.17       43.95       
H           77.89474    -5.19196    44.23246    
H           75.64       -13.06      41.22       
H           73.85984    -12.59047   40.79979    
H           75.15       -12.18      39.73       
C           74.35       -7.02       39.85       
C           73.82       -9.29       39.8        
C           73.56       -8.03       39.37       
C           82.04       -11.07      54.29       
S           80.97       -11.98      53.2        
C           82.34       -9.83       53.77       
C           81.78       -9.63       52.46       
C           80.97       -10.66      52.02       
N           81.78       -8.57       51.51       
C           80.92       -9.0        50.45       
C           80.4        -10.24      50.73       
C           82.65       -7.39       51.47       
H           82.38       -6.73       50.66       
H           83.7        -7.68       51.36       
H           82.57714    -6.76339    52.35891    
H           80.92       -7.51       48.85       
H           83.07       -9.15       54.3        
C           80.55       -8.46       49.2        
S           79.22       -10.74      49.59       
C           79.61       -9.32       48.62       
C           85.47       -15.12      64.32       
C           84.78       -13.91      64.23       
C           85.65       -15.83      63.13       
C           85.08       -15.31      61.93       
C           84.32       -14.16      61.83       
C           84.26       -13.46      63.05       
N           85.25       -15.86      60.72       
C           84.6        -15.17      59.71       
C           84.0        -13.9       60.36       
O           84.76       -15.38      58.54       
C           86.0        -17.05      60.34       
C           83.49       -12.85      59.6        
C           83.05       -12.69      58.17       
C           82.8        -11.33      57.96       
N           82.94       -10.66      59.2        
C           83.33       -11.48      60.16       
C           82.86       -13.55      57.06       
O           83.5        -10.97      61.25       
C           82.86       -9.19       59.35       
H           83.79       -12.55      63.02       
H           86.31       -16.67      63.14       
H           84.6        -13.28      65.07       
H           82.14       -9.72       56.7        
H           83.03       -14.6       57.25       
H           82.13       -13.71      55.09       
H           86.41       -17.02      59.35       
H           87.01       -17.11      60.88       
H           85.35645    -17.91739   60.4869     
H           82.56       -8.98       60.37       
H           83.80379    -8.67198    59.17969    
H           81.88       -8.8        58.84       
C           82.43       -13.0       55.85       
C           82.45       -10.78      56.69       
C           82.42       -11.61      55.59       
C           87.93       -18.75      70.8        
S           88.23       -19.09      69.06       
C           87.55       -17.45      70.9        
C           87.13       -16.85      69.69       
C           87.5        -17.6       68.55       
N           86.63       -15.65      69.2        
C           86.58       -15.76      67.83       
C           87.09       -16.94      67.38       
C           86.07       -14.54      69.97       
H           85.9        -13.66      69.35       
H           86.75       -14.15      70.7        
H           85.08546    -14.78791   70.36665    
H           85.22       -14.18      67.07       
H           87.51       -16.98      71.81       
C           85.9        -14.98      66.84       
S           86.95       -17.03      65.68       
C           86.03       -15.56      65.58       
C           91.15       -26.97      77.89       
C           91.08       -25.65      78.28       
C           90.76       -27.27      76.59       
C           90.43       -26.22      75.74       
C           90.24       -24.85      76.14       
C           90.6        -24.59      77.48       
N           90.19       -26.31      74.39       
C           89.8        -25.1       73.86       
C           89.83       -24.05      74.96       
O           89.52       -25.0       72.73       
C           90.48       -27.48      73.46       
C           89.48       -22.64      74.78       
C           89.15       -21.9       73.58       
C           88.78       -20.56      73.99       
N           88.88       -20.43      75.39       
C           89.38       -21.67      75.94       
C           89.09       -22.1       72.18       
O           89.44       -21.86      77.16       
C           88.09       -19.5       76.2        
H           90.58       -23.56      77.84       
H           90.59       -28.24      76.19       
H           91.46       -25.32      79.22       
H           88.03       -18.63      73.51       
H           89.2        -23.02      71.65       
H           88.81       -21.35      70.31       
H           91.44       -27.83      73.74       
H           90.53       -27.22      72.39       
H           89.77149    -28.29586   73.60313    
H           87.72       -20.01      77.06       
H           88.63036    -18.5877    76.45264    
H           87.32       -19.25      75.59       
C           88.85       -21.03      71.34       
C           88.36       -19.55      73.11       
C           88.33       -19.78      71.77       
C           92.26       -33.46      82.19       
S           92.03       -33.22      80.48       
C           92.21       -32.29      82.88       
C           92.02       -31.16      81.97       
C           91.87       -31.51      80.66       
N           91.99       -29.78      82.08       
C           91.69       -29.29      80.79       
C           91.7        -30.33      79.89       
C           92.39       -28.99      83.21       
H           92.78       -29.59      84.02       
H           93.24       -28.29      83.01       
H           91.49337    -28.47864   83.56025    
H           91.41       -27.11      80.77       
H           92.36       -32.39      83.92       
C           91.5        -27.99      80.23       
S           91.6        -29.7       78.28       
C           91.39       -28.07      78.86       
C           97.57       -40.64      88.58       
C           98.0        -40.34      87.32       
C           96.27       -40.29      88.9        
C           95.54       -39.62      87.9        
C           95.91       -39.37      86.6        
C           97.23       -39.72      86.31       
N           94.2        -39.12      88.06       
C           93.67       -38.56      86.95       
C           94.79       -38.67      85.88       
O           92.49       -38.22      86.96       
C           93.37       -39.56      89.1        
C           94.54       -38.06      84.63       
C           93.68       -37.01      84.15       
C           94.08       -36.66      82.8        
N           95.06       -37.54      82.39       
C           95.48       -38.3       83.44       
C           92.63       -36.21      84.69       
O           96.36       -39.09      83.27       
C           95.63       -37.66      80.96       
H           97.62       -39.47      85.35       
H           95.87       -40.39      89.87       
H           99.04       -40.6       87.0        
H           94.0        -35.18      81.2        
H           92.23       -36.43      85.68       
H           91.32       -34.51      84.42       
H           93.63       -40.51      89.53       
H           92.37       -39.76      88.79       
H           93.35596    -38.84378   89.92154    
H           96.62       -38.08      80.97       
H           94.98477    -38.14392   80.22679    
H           95.9        -36.65      80.68       
C           92.12       -35.11      83.97       
C           93.5        -35.56      82.07       
C           92.61       -34.78      82.74       
C           101.45      -44.75      93.94       
S           100.09      -43.6       94.17       
C           101.89      -44.81      92.67       
C           101.21      -43.89      91.79       
C           100.09      -43.31      92.47       
N           101.16      -43.62      90.47       
C           100.09      -42.79      90.32       
C           99.34       -42.71      91.47       
C           101.74      -44.39      89.41       
H           102.12      -43.63      88.66       
H           102.6       -44.96      89.73       
H           101.01024   -45.06918   88.96925    
H           100.0       -42.11      88.23       
H           102.61      -45.53      92.27       
C           99.55       -42.09      89.22       
S           98.01       -41.66      91.23       
C           98.39       -41.43      89.56       
C           102.54      -53.56      100.48      
C           103.65      -53.03      99.91       
C           101.33      -52.85      100.37      
C           101.27      -51.72      99.58       
C           102.41      -51.24      98.86       
C           103.63      -51.85      99.15       
N           100.14      -50.97      99.31       
C           100.39      -50.1       98.27       
C           101.87      -50.08      98.02       
O           99.49       -49.52      97.73       
C           98.89       -51.09      100.01      
C           102.44      -49.26      97.1        
C           102.02      -48.04      96.48       
C           103.04      -47.59      95.6        
N           104.12      -48.51      95.7        
C           103.81      -49.55      96.62       
C           100.9       -47.16      96.63       
O           104.65      -50.45      96.8        
C           105.43      -48.28      95.24       
H           104.61      -51.59      98.78       
H           100.49      -53.16      100.93      
H           104.63      -53.52      100.08      
H           103.83      -46.29      94.17       
H           100.0       -47.38      97.19       
H           99.92       -45.52      95.85       
H           98.33       -50.13      99.91       
H           99.01       -51.19      101.09      
H           98.26089    -51.90997   99.66363    
H           106.15      -48.69      96.04       
H           105.60136   -48.78693   94.29039    
H           105.55      -47.17      95.27       
C           100.85      -46.01      95.92       
C           103.05      -46.44      94.89       
C           101.87      -45.65      94.99       
C           102.02      -60.4       103.82      
S           100.79      -59.46      102.99      
C           103.18      -59.69      103.95      
C           103.18      -58.43      103.33      
C           102.0       -58.25      102.7       
N           104.08      -57.45      103.24      
C           103.4       -56.54      102.47      
C           102.11      -57.02      102.17      
C           105.39      -57.41      103.65      
H           105.85      -56.47      103.34      
H           105.89      -58.19      103.15      
H           105.56335   -57.59029   104.71092   
H           104.51      -54.75      101.91      
H           104.11      -60.06      104.44      
C           103.62      -55.27      101.88      
S           101.15      -55.91      101.3       
C           102.56      -54.81      101.22      
C           100.98      -70.02      108.93      
C           102.21      -69.46      108.56      
C           99.82       -69.32      108.68      
C           99.8        -68.26      107.86      
C           101.02      -67.73      107.3       
C           102.22      -68.27      107.75      
N           98.76       -67.47      107.43      
C           99.18       -66.49      106.58      
C           100.74      -66.6       106.49      
O           98.46       -65.74      105.95      
C           97.38       -67.82      107.43      
C           101.52      -65.66      105.86      
C           101.4       -64.29      105.45      
C           102.6       -63.88      104.84      
N           103.53      -64.93      104.8       
C           102.89      -66.05      105.32      
C           100.47      -63.27      105.59      
O           103.48      -67.15      105.29      
C           104.98      -64.88      104.5       
H           103.12      -67.77      107.57      
H           98.91       -69.74      109.04      
H           103.12      -69.82      108.9       
H           103.83      -62.3       103.95      
H           99.54       -63.49      106.06      
H           99.84       -61.27      105.03      
H           97.23       -68.8       107.84      
H           97.04       -67.6       106.43      
H           96.82334    -67.08261   108.00835   
H           105.35      -63.96      104.88      
H           105.21643   -65.05732   103.45083   
H           105.46      -65.68      105.08      
C           100.67      -61.99      105.05      
C           102.89      -62.55      104.47      
C           101.83      -61.64      104.49      
C           100.15      -77.22      111.99      
S           98.97       -75.94      111.81      
C           101.39      -76.8       111.52      
C           101.33      -75.44      111.07      
C           100.12      -74.83      111.11      
N           102.31      -74.59      110.61      
C           101.62      -73.48      110.32      
C           100.27      -73.56      110.57      
C           103.71      -74.87      110.31      
H           104.22      -73.96      110.0       
H           103.89      -75.43      109.37      
H           104.21407   -75.42674   111.09997   
H           103.0       -71.84      109.63      
H           102.25      -77.42      111.48      
C           102.0       -72.16      109.81      
S           99.44       -72.09      110.11      
C           100.95      -71.31      109.61      
C           97.37       -87.41      116.29      
C           98.73       -87.06      116.12      
C           96.42       -86.5       115.88      
C           96.79       -85.3       115.23      
C           98.14       -84.87      115.04      
C           99.04       -85.87      115.47      
N           95.96       -84.3       114.84      
C           96.61       -83.3       114.21      
C           98.14       -83.45      114.5       
O           96.0        -82.48      113.48      
C           94.51       -84.2       115.2       
C           99.13       -82.6       114.07      
C           99.09       -81.24      113.43      
C           100.43      -80.78      113.27      
N           101.29      -81.81      113.65      
C           100.62      -82.94      114.08      
C           98.13       -80.28      113.01      
O           101.19      -83.94      114.41      
C           102.7       -81.86      113.5       
H           100.14      -85.74      115.48      
H           95.35       -86.71      115.88      
H           99.51       -87.7       116.53      
H           101.78      -79.1       112.78      
H           97.1        -80.48      113.05      
H           97.6        -78.43      112.18      
H           93.82       -84.57      114.46      
H           94.41       -84.83      116.1       
H           94.20288    -83.2577    115.6537    
H           103.01      -81.2       112.67      
H           103.13996   -81.49686   114.4288    
H           102.95      -82.85      113.24      
C           98.49       -79.05      112.47      
C           100.79      -79.48      112.81      
C           99.78       -78.55      112.45      
C           95.17       -93.42      120.68      
S           94.36       -91.91      120.32      
C           96.51       -93.43      120.23      
C           96.77       -92.22      119.5       
C           95.68       -91.41      119.3       
N           97.82       -91.72      118.73      
C           97.33       -90.61      118.06      
C           95.98       -90.39      118.42      
C           99.14       -92.26      118.68      
H           99.72       -91.59      118.03      
H           99.09       -93.28      118.29      
H           99.56543    -92.20953   119.68228   
H           98.86       -89.64      116.81      
H           97.24       -94.22      120.42      
C           97.87       -89.63      117.19      
S           95.36       -88.94      117.53      
C           96.99       -88.66      116.9       
C           89.95       -101.67     125.99      
C           91.07       -101.89     125.25      
C           89.55       -100.36     126.25      
C           90.27       -99.38      125.74      
C           91.51       -99.51      125.08      
C           91.87       -100.86     124.83      
N           89.9        -98.06      125.8       
C           90.89       -97.25      125.1       
C           91.92       -98.21      124.54      
O           90.79       -96.08      125.14      
C           89.18       -97.53      126.99      
C           92.99       -97.74      123.8       
C           93.35       -96.5       123.07      
C           94.62       -96.68      122.48      
N           95.14       -97.93      122.77      
C           94.23       -98.55      123.64      
C           92.73       -95.29      122.84      
O           94.43       -99.63      124.23      
C           96.53       -98.19      123.0       
H           92.65       -101.09     124.17      
H           88.66       -100.22     126.82      
H           91.35       -102.89     124.89      
H           96.12       -95.85      121.28      
H           91.77       -95.1       123.25      
H           92.81       -93.29      121.87      
H           88.22       -97.15      126.77      
H           89.02       -98.41      127.7       
H           89.7534     -96.81843   127.58412   
H           96.72       -98.73      123.97      
H           97.00377    -98.7212    122.17449   
H           97.06       -97.22      123.19      
C           93.31       -94.27      122.05      
C           95.11       -95.66      121.72      
C           94.53       -94.45      121.44      
C           85.68       -107.21     129.35      
S           85.27       -105.61     128.81      
C           86.97       -107.62     129.11      
C           87.62       -106.53     128.36      
C           86.86       -105.38     128.18      
N           88.88       -106.24     127.89      
C           88.95       -104.97     127.4       
C           87.68       -104.4      127.58      
C           90.01       -107.17     127.75      
H           90.75       -106.68     127.13      
H           89.74       -107.96     127.03      
H           90.33569    -107.59932  128.69747   
H           90.91       -104.29     126.5       
H           87.34       -108.54     129.42      
C           89.85       -104.07     126.76      
S           87.67       -102.75     127.24      
C           89.27       -102.86     126.57      
H           46.86       12.83       26.35       
H           84.94       -107.76     129.92      
