512

C           49.13       3.81        23.11       
C           48.4        4.94        23.5        
C           49.28       3.65        21.72       
C           48.73       4.56        20.82       
C           47.89       5.61        21.21       
C           47.72       5.75        22.57       
N           48.78       4.44        19.4        
C           47.97       5.46        18.82       
C           47.37       6.29        19.99       
O           47.93       5.67        17.63       
C           49.93       3.86        18.7        
C           46.62       7.47        19.7        
C           45.82       7.95        18.49       
C           45.14       9.19        18.86       
N           45.45       9.5         20.15       
C           46.22       8.52        20.74       
C           45.6        7.58        17.13       
O           46.52       8.66        21.95       
C           44.82       10.57       20.93       
H           47.1        6.57        22.91       
H           49.79       2.84        21.32       
H           48.22       4.98        24.59       
H           43.76       10.66       18.35       
H           46.13       6.7         16.76       
H           44.61       7.78        15.35       
H           50.09       2.87        18.84       
H           49.64       3.92        17.7        
H           50.78742    4.53072     18.75532    
H           43.74       10.61       20.66       
H           45.29269    11.52243    20.69013    
H           44.88       10.31       21.88       
C           44.73       8.24        16.36       
C           44.32       9.84        17.96       
C           44.11       9.37        16.71       
C           53.41       -1.1        27.36       
S           53.78       -0.2        25.91       
C           52.15       -0.88       27.83       
C           51.48       0.14        27.05       
C           52.13       0.48        25.83       
N           50.23       0.79        27.03       
C           50.14       1.51        25.88       
C           51.26       1.27        25.11       
C           49.19       0.71        28.07       
H           48.5        1.5         27.93       
H           49.58       0.79        29.12       
H           48.55686    -0.16776    27.94049    
H           48.45       2.95        25.89       
H           51.75       -1.41       28.73       
C           49.3        2.5         25.33       
S           51.2        2.1         23.62       
C           49.68       2.83        24.03       
C           60.76       -6.74       33.65       
C           59.94       -7.4        32.66       
C           60.68       -5.34       33.68       
C           59.8        -4.65       32.86       
C           58.88       -5.32       31.99       
C           59.03       -6.71       31.84       
N           59.52       -3.26       32.89       
C           58.53       -2.93       31.99       
C           58.13       -4.25       31.37       
O           58.03       -1.79       31.98       
C           59.93       -2.33       33.95       
C           57.0        -4.3        30.61       
C           56.26       -3.27       29.86       
C           55.16       -3.92       29.24       
N           55.0        -5.24       29.75       
C           56.05       -5.57       30.63       
C           56.48       -1.89       29.46       
O           56.03       -6.59       31.24       
C           54.29       -6.23       28.99       
H           58.34       -7.24       31.19       
H           61.37       -4.89       34.4        
H           59.87       -8.48       32.66       
H           53.29       -3.76       28.16       
H           57.39       -1.47       29.82       
H           55.79       -0.2        28.23       
H           59.1        -1.67       34.39       
H           60.3        -2.91       34.82       
H           60.75706    -1.68065    33.66292    
H           54.93       -7.13       28.95       
H           53.32146    -6.52199    29.39593    
H           54.16       -5.82       28.02       
C           55.56       -1.23       28.59       
C           54.22       -3.27       28.42       
C           54.37       -1.91       28.12       
C           65.49       -10.3       38.94       
S           65.39       -8.61       38.5        
C           64.66       -11.01      38.1        
C           63.91       -10.22      37.19       
C           64.16       -8.85       37.32       
N           62.83       -10.43      36.32       
C           62.66       -9.25       35.63       
C           63.39       -8.21       36.32       
C           62.34       -11.7       35.96       
H           61.36       -11.54      35.5        
H           62.15       -12.33      36.81       
H           63.03472    -12.18264   35.2726     
H           61.27       -9.55       33.95       
H           64.56       -12.09      38.13       
C           61.86       -8.84       34.55       
S           62.87       -6.69       35.58       
C           61.76       -7.48       34.51       
C           74.0        -14.45      45.03       
C           72.88       -15.2       44.64       
C           74.0        -13.14      44.59       
C           72.98       -12.67      43.71       
C           71.9        -13.43      43.26       
C           71.84       -14.69      43.83       
N           72.88       -11.39      43.22       
C           71.72       -11.27      42.43       
C           70.98       -12.55      42.43       
O           71.51       -10.29      41.71       
C           73.5        -10.25      43.89       
C           69.73       -12.66      41.82       
C           68.74       -11.84      41.25       
C           67.64       -12.64      40.8        
N           67.91       -14.0       40.92       
C           69.11       -14.04      41.56       
C           68.48       -10.47      41.02       
O           69.63       -15.12      41.81       
C           66.94       -15.06      41.0        
H           70.99       -15.36      43.65       
H           74.81       -12.45      44.75       
H           72.86       -16.22      44.89       
H           65.77       -12.79      39.68       
H           69.24       -9.79       41.45       
H           67.51       -8.94       40.05       
H           74.1        -10.48      44.82       
H           74.14       -9.76       43.25       
H           72.80468    -9.47663    44.21638    
H           65.93       -14.7       41.07       
H           66.96838    -15.71264   40.12744    
H           67.24       -15.67      41.81       
C           67.46       -9.99       40.35       
C           66.54       -12.18      40.09       
C           66.46       -10.83      39.85       
C           78.73       -17.31      50.6        
S           77.18       -17.91      49.93       
C           79.22       -16.27      49.88       
C           78.31       -15.91      48.89       
C           77.12       -16.64      48.83       
N           78.14       -14.84      47.93       
C           76.94       -15.06      47.23       
C           76.3        -16.14      47.81       
C           79.15       -13.99      47.38       
H           78.69       -13.21      46.92       
H           79.74       -14.56      46.67       
H           79.698      -13.50523   48.18795    
H           76.53       -13.57      45.63       
H           80.15       -15.75      50.08       
C           76.21       -14.45      46.19       
S           74.78       -16.39      47.07       
C           75.07       -15.05      45.92       
C           81.59       -21.31      60.7        
C           81.83       -20.03      60.29       
C           81.18       -22.19      59.68       
C           80.92       -21.74      58.38       
C           81.14       -20.38      58.03       
C           81.57       -19.56      59.04       
N           80.38       -22.52      57.33       
C           80.25       -21.68      56.19       
C           80.79       -20.29      56.6        
O           80.01       -22.1       55.1        
C           79.91       -23.87      57.45       
C           80.79       -19.19      55.72       
C           80.2        -18.96      54.37       
C           80.64       -17.76      53.83       
N           81.36       -17.09      54.75       
C           81.37       -17.8       55.94       
C           79.34       -19.7       53.47       
O           81.98       -17.34      56.87       
C           82.23       -16.0       54.47       
H           81.71       -18.52      58.92       
H           80.95       -23.25      59.96       
H           82.19       -19.23      61.01       
H           80.63       -16.26      52.35       
H           78.86       -20.61      53.86       
H           78.2        -19.6       51.73       
H           80.21       -24.47      56.52       
H           80.25       -24.37      58.31       
H           78.85071    -23.80602   57.69883    
H           82.54       -15.63      55.4        
H           83.06971    -16.28226   53.83493    
H           81.7        -15.21      53.97       
C           78.84       -19.09      52.34       
C           80.29       -17.25      52.59       
C           79.29       -17.89      51.84       
C           82.34       -24.56      67.86       
S           82.11       -25.35      66.26       
C           82.24       -23.19      67.79       
C           82.0        -22.78      66.43       
C           82.05       -23.82      65.4        
N           81.87       -21.57      65.78       
C           81.86       -21.84      64.38       
C           81.94       -23.18      64.16       
C           81.97       -20.24      66.35       
H           82.01       -19.49      65.58       
H           82.89       -20.19      66.89       
H           81.23628    -20.05297   67.13407    
H           81.63       -19.94      63.22       
H           82.45       -22.5       68.62       
C           81.78       -20.99      63.21       
S           81.81       -23.52      62.45       
C           81.78       -21.75      62.03       
C           87.31       -30.83      75.45       
C           87.7        -29.53      75.07       
C           86.02       -31.3       75.12       
C           85.25       -30.49      74.27       
C           85.69       -29.13      73.89       
C           86.98       -28.68      74.26       
N           84.0        -30.68      73.72       
C           83.54       -29.64      72.83       
C           84.65       -28.56      72.96       
O           82.5        -29.62      72.23       
C           83.36       -31.95      73.56       
C           84.53       -27.37      72.27       
C           83.79       -26.85      71.09       
C           84.02       -25.48      70.96       
N           84.98       -25.03      71.92       
C           85.27       -26.07      72.71       
C           82.88       -27.48      70.16       
O           86.06       -25.92      73.6        
C           85.24       -23.63      72.22       
H           87.37       -27.71      73.91       
H           85.67       -32.23      75.51       
H           88.7        -29.18      75.38       
H           83.72       -23.77      69.81       
H           82.62       -28.56      70.16       
H           81.89       -27.11      68.27       
H           83.99       -32.77      73.1        
H           82.46       -31.76      72.94       
H           82.9567     -32.36697   74.48281    
H           85.58       -23.58      73.24       
H           85.96389    -23.18289   71.53869    
H           84.3        -23.1       72.08       
C           82.48       -26.66      69.09       
C           83.51       -24.78      69.93       
C           82.79       -25.4       68.95       
C           91.47       -35.8       79.76       
S           89.85       -35.99      79.12       
C           92.02       -34.55      79.64       
C           91.09       -33.74      78.85       
C           89.93       -34.38      78.45       
N           91.11       -32.47      78.21       
C           89.9        -32.27      77.65       
C           89.21       -33.48      77.63       
C           92.27       -31.58      78.11       
H           93.15       -32.24      77.97       
H           92.3        -30.86      77.27       
H           92.41114    -31.14173   79.09798    
H           89.75       -30.24      76.73       
H           92.98       -34.23      79.99       
C           89.31       -31.21      76.9        
S           87.82       -33.3       76.66       
C           88.17       -31.6       76.37       
C           96.47       -43.05      86.78       
C           97.06       -41.87      86.38       
C           95.25       -43.37      86.16       
C           94.75       -42.53      85.17       
C           95.32       -41.28      84.76       
C           96.52       -41.0       85.41       
N           93.5        -42.68      84.47       
C           93.31       -41.66      83.55       
C           94.41       -40.63      83.79       
O           92.42       -41.75      82.71       
C           92.64       -43.86      84.58       
C           94.48       -39.46      83.03       
C           93.47       -38.76      82.2        
C           94.19       -37.74      81.49       
N           95.5        -37.77      81.79       
C           95.79       -38.8       82.65       
C           92.12       -38.75      81.99       
O           96.89       -39.12      83.09       
C           96.57       -36.9       81.24       
H           97.12       -40.15      85.24       
H           94.67       -44.24      86.49       
H           97.98       -41.55      86.83       
H           94.08       -35.96      80.23       
H           91.52       -39.56      82.47       
H           90.35       -37.9       80.94       
H           93.22       -44.75      84.72       
H           92.22       -44.12      83.62       
H           91.85623    -43.70466   85.3214     
H           96.33       -36.65      80.12       
H           96.69983    -35.99841   81.83865    
H           97.48       -37.44      81.23       
C           91.44       -37.83      81.12       
C           93.53       -36.79      80.7        
C           92.16       -36.91      80.48       
C           98.77       -48.13      92.27       
S           97.31       -48.08      91.31       
C           99.66       -47.17      91.85       
C           99.14       -46.27      90.87       
C           97.82       -46.63      90.49       
N           99.59       -45.17      90.13       
C           98.58       -44.77      89.27       
C           97.5        -45.67      89.51       
C           100.96      -44.82      89.87       
H           101.37      -45.65      89.39       
H           101.11      -44.04      89.17       
H           101.52907   -44.62568   90.77912    
H           98.99       -42.99      87.98       
H           100.68      -47.2       92.28       
C           98.3        -43.78      88.28       
S           96.22       -45.24      88.44       
C           97.09       -43.9       87.74       
C           100.37      -55.85      100.3       
C           101.39      -54.99      99.82       
C           99.11       -55.81      99.72       
C           98.9        -54.89      98.65       
C           99.77       -53.81      98.36       
C           101.13      -53.92      98.97       
N           97.74       -54.77      97.89       
C           97.83       -53.62      97.1        
C           99.18       -52.98      97.25       
O           96.93       -53.28      96.36       
C           96.68       -55.73      97.9        
C           99.67       -51.91      96.59       
C           99.18       -51.18      95.43       
C           99.88       -49.94      95.36       
N           100.79      -49.88      96.4        
C           100.77      -51.03      97.18       
C           98.23       -51.29      94.41       
O           101.32      -51.2       98.23       
C           101.54      -48.75      96.82       
H           101.93      -53.37      98.59       
H           98.4        -56.53      99.96       
H           102.36      -54.93      100.32      
H           100.44      -48.11      94.46       
H           97.68       -52.24      94.31       
H           97.48       -50.39      92.64       
H           95.76       -55.2       97.55       
H           96.38       -56.12      98.82       
H           96.94088    -56.62547   97.33593    
H           101.81      -48.89      97.85       
H           102.41843   -48.55633   96.20441    
H           100.82      -47.93      96.85       
C           98.2        -50.35      93.38       
C           99.79       -48.95      94.43       
C           98.94       -49.15      93.39       
C           101.32      -61.75      105.46      
S           99.85       -61.12      104.58      
C           102.33      -60.85      105.22      
C           102.06      -59.81      104.29      
C           100.74      -59.8       103.87      
N           102.79      -58.75      103.67      
C           101.86      -58.18      102.85      
C           100.6       -58.76      102.91      
C           104.2       -58.71      103.44      
H           104.44      -57.67      103.04      
H           104.53      -59.49      102.81      
H           104.77613   -58.77247   104.36319   
H           102.76      -56.45      101.81      
H           103.35      -60.98      105.73      
C           101.88      -57.08      102.01      
S           99.54       -58.07      101.73      
C           100.7       -56.89      101.35      
C           101.88      -72.14      109.27      
C           102.8       -71.49      108.47      
C           100.88      -71.36      109.77      
C           100.73      -70.01      109.44      
C           101.65      -69.38      108.62      
C           102.73      -70.16      108.08      
N           99.66       -69.13      109.74      
C           99.92       -67.9       109.15      
C           101.21      -67.98      108.41      
O           99.21       -66.92      109.33      
C           98.35       -69.48      110.26      
C           101.86      -66.89      107.81      
C           101.48      -65.53      107.36      
C           102.58      -64.99      106.7       
N           103.68      -65.69      106.82      
C           103.35      -66.83      107.52      
C           100.21      -64.87      107.21      
O           104.24      -67.65      107.69      
C           105.06      -65.22      106.55      
H           103.49      -69.8       107.44      
H           100.2       -71.72      110.5       
H           103.62      -72.03      108.03      
H           103.44      -63.35      105.64      
H           99.26       -65.3       107.45      
H           99.26       -62.99      106.65      
H           98.24       -70.56      110.34      
H           97.51       -69.08      109.68      
H           98.20999    -69.0084    111.23267   
H           105.28      -64.18      106.77      
H           105.41033   -65.40217   105.53404   
H           105.79      -65.65      107.27      
C           100.2       -63.51      106.77      
C           102.55      -63.76      106.12      
C           101.36      -62.98      106.12      
C           102.66      -79.37      112.23      
S           101.29      -78.26      112.38      
C           103.63      -78.93      111.38      
C           103.4       -77.6       110.99      
C           102.12      -77.1       111.39      
N           104.04      -76.68      110.13      
C           103.17      -75.57      110.06      
C           101.99      -75.78      110.8       
C           105.21      -76.87      109.32      
H           105.27      -75.98      108.75      
H           105.2       -77.72      108.6       
H           106.09197   -76.84866   109.96014   
H           103.95      -73.92      108.82      
H           104.43      -79.61      110.97      
C           103.15      -74.33      109.46      
S           100.91      -74.44      110.63      
C           102.11      -73.5       109.77      
C           102.1       -89.57      117.1       
C           103.23      -89.17      116.48      
C           100.98      -88.73      117.19      
C           101.13      -87.44      116.65      
C           102.33      -86.99      116.01      
C           103.42      -87.95      115.97      
N           100.12      -86.52      116.48      
C           100.63      -85.36      115.97      
C           102.07      -85.54      115.54      
O           100.03      -84.31      115.95      
C           98.72       -86.76      116.6       
C           102.81      -84.53      114.92      
C           102.41      -83.26      114.17      
C           103.65      -82.6       113.85      
N           104.74      -83.39      114.22      
C           104.33      -84.57      114.81      
C           101.25      -82.53      113.72      
O           105.05      -85.43      115.3       
C           106.09      -83.1       113.77      
H           104.34      -87.64      115.61      
H           99.98       -89.14      117.55      
H           104.01      -89.86      116.33      
H           104.71      -80.87      113.09      
H           100.23      -82.9       113.75      
H           100.46      -80.83      112.68      
H           98.37       -87.78      116.65      
H           98.25       -86.18      117.36      
H           98.24603    -86.47993   115.65925   
H           106.02      -82.47      112.9       
H           106.64428   -82.60257   114.56589   
H           106.43      -84.07      113.47      
C           101.36      -81.32      112.94      
C           103.74      -81.33      113.24      
C           102.57      -80.67      112.83      
C           100.45      -96.89      119.44      
S           100.07      -95.38      120.16      
C           101.11      -96.71      118.23      
C           101.54      -95.39      118.04      
C           101.03      -94.53      119.0       
N           102.23      -94.71      117.02      
C           102.13      -93.32      117.36      
C           101.37      -93.21      118.57      
C           102.98      -95.22      115.91      
H           103.42      -94.49      115.27      
H           102.41      -95.83      115.21      
H           103.70036   -95.95448   116.27018   
H           102.99      -92.02      115.76      
H           101.56      -97.51      117.63      
C           102.52      -92.08      116.74      
S           101.18      -91.51      118.91      
C           102.07      -91.0       117.49      
C           97.06       -106.47     124.14      
C           97.68       -106.46     122.87      
C           96.85       -105.23     124.82      
C           97.21       -104.05     124.19      
C           97.74       -104.04     122.9       
C           98.08       -105.27     122.33      
N           96.76       -102.78     124.65      
C           97.1        -101.87     123.66      
C           97.82       -102.59     122.5       
O           96.89       -100.68     123.82      
C           96.25       -102.41     125.96      
C           98.32       -101.89     121.34      
C           98.67       -100.49     121.03      
C           99.27       -100.46     119.75      
N           99.15       -101.69     119.16      
C           98.52       -102.61     120.04      
C           98.81       -99.29      121.76      
O           98.23       -103.76     119.75      
C           99.82       -102.18     117.97      
H           98.59       -105.28     121.41      
H           96.48       -105.23     125.84      
H           97.95       -107.44     122.41      
H           100.46      -99.36      118.32      
H           98.31       -99.09      122.74      
H           99.32       -97.19      121.84      
H           95.47       -101.67     125.81      
H           95.99       -103.27     126.54      
H           97.00113    -101.86865  126.53519   
H           100.25      -103.16     118.1       
H           99.20012    -102.30679  117.08244   
H           100.66      -101.58     117.62      
C           99.39       -98.14      121.23      
C           99.9        -99.29      119.23      
C           99.91       -98.14      119.98      
C           95.28       -112.57     128.72      
S           94.84       -110.9      128.81      
C           95.9        -112.83     127.5       
C           96.07       -111.67     126.7       
C           95.55       -110.52     127.3       
N           96.51       -111.34     125.4       
C           96.49       -109.96     125.31      
C           95.98       -109.44     126.53      
C           96.46       -112.22     124.23      
H           97.53       -112.52     124.15      
H           96.19       -111.7      123.27      
H           95.83791    -113.09236  124.43021   
H           97.25       -109.24     123.44      
H           96.33       -113.86     127.36      
C           96.86       -109.01     124.37      
S           95.98       -107.7      126.46      
C           96.67       -107.68     124.79      
H           43.15       9.59        16.22       
H           95.33       -113.27     129.52      
