512

C           48.15       42.51       18.36       
C           48.85       43.7        18.37       
C           47.2        42.31       17.36       
C           46.86       43.28       16.46       
C           47.4        44.58       16.55       
C           48.43       44.73       17.5        
N           45.97       43.11       15.38       
C           45.84       44.33       14.75       
C           46.78       45.35       15.48       
O           45.23       44.45       13.74       
C           46.07       41.83       14.66       
C           47.0        46.63       14.98       
C           46.58       47.38       13.75       
C           47.35       48.61       13.76       
N           48.04       48.74       14.93       
C           47.8        47.71       15.79       
C           45.73       47.23       12.61       
O           48.16       47.72       17.03       
C           49.02       49.82       15.21       
H           48.91       45.66       17.66       
H           46.56       41.41       17.28       
H           49.59       43.98       19.11       
H           47.95       50.51       12.82       
H           45.14       46.29       12.43       
H           44.92       48.02       10.8        
H           46.5        41.14       15.35       
H           45.11       41.43       14.4        
H           46.67756    41.86532    13.75572    
H           48.69       50.77       14.81       
H           49.96476    49.51683    14.75877    
H           49.1        49.88       16.31       
C           45.65       48.2        11.58       
C           47.35       49.57       12.72       
C           46.46       49.4        11.6        
C           50.56       37.58       24.04       
S           50.9        39.3        23.78       
C           49.95       37.04       22.93       
C           49.71       38.05       21.92       
C           50.08       39.35       22.25       
N           49.06       38.07       20.69       
C           48.99       39.38       20.31       
C           49.6        40.26       21.23       
C           48.82       37.02       19.76       
H           48.54       37.5        18.83       
H           47.97       36.35       20.15       
H           49.63605    36.3033     19.66775    
H           47.94       39.65       18.35       
H           49.71       36.03       22.9        
C           48.4        40.12       19.24       
S           49.23       41.89       20.86       
C           48.48       41.48       19.34       
C           56.4        32.4        31.93       
C           55.51       31.74       31.17       
C           56.44       33.81       31.88       
C           55.55       34.41       31.01       
C           54.61       33.73       30.2        
C           54.63       32.35       30.29       
N           55.44       35.79       30.85       
C           54.51       36.11       29.93       
C           53.88       34.8        29.42       
O           54.07       37.25       29.68       
C           56.55       36.62       31.33       
C           52.87       34.74       28.48       
C           52.44       35.7        27.49       
C           51.5        35.04       26.67       
N           51.16       33.83       27.19       
C           51.94       33.57       28.27       
C           52.75       37.02       27.06       
O           51.83       32.5        28.86       
C           50.19       32.86       26.71       
H           54.17       31.86       29.47       
H           57.15       34.41       32.51       
H           55.5        30.66       31.13       
H           50.08       34.99       25.11       
H           53.62       37.52       27.47       
H           52.46       38.58       25.77       
H           56.67       36.65       32.47       
H           57.43       36.13       30.98       
H           56.60625    37.57617    30.80973    
H           49.3        33.37       26.32       
H           50.59076    32.21315    25.92957    
H           49.86       32.33       27.55       
C           52.03       37.65       26.05       
C           50.83       35.6        25.61       
C           51.09       36.93       25.23       
C           61.4        29.92       37.51       
S           61.54       31.25       36.33       
C           60.42       29.07       37.09       
C           59.56       29.52       36.02       
C           60.07       30.75       35.52       
N           58.49       29.14       35.25       
C           58.17       30.2        34.39       
C           59.15       31.22       34.56       
C           57.64       27.98       35.39       
H           57.18       27.88       34.45       
H           56.92       28.11       36.18       
H           58.24709    27.08722    35.53999    
H           56.19       30.0        33.33       
H           60.25       28.14       37.64       
C           57.07       30.59       33.53       
S           58.81       32.53       33.46       
C           57.31       31.76       32.91       
C           69.99       27.5        44.22       
C           68.75       27.15       44.59       
C           70.09       28.4        43.17       
C           68.94       28.93       42.55       
C           67.66       28.39       42.81       
C           67.6        27.41       43.87       
N           68.93       29.79       41.49       
C           67.63       29.87       40.97       
C           66.69       28.95       41.76       
O           67.39       30.57       39.98       
C           69.97       30.69       41.07       
C           65.34       28.73       41.5        
C           64.51       29.12       40.34       
C           63.15       28.87       40.72       
N           63.03       28.23       41.96       
C           64.33       28.13       42.46       
C           64.72       29.57       39.01       
O           64.5        27.86       43.62       
C           61.99       27.31       42.37       
H           66.69       26.99       44.18       
H           71.02       28.74       42.78       
H           68.57       26.52       45.43       
H           61.06       28.92       40.1        
H           65.72       29.6        38.64       
H           63.88       30.08       37.13       
H           70.9        30.47       41.52       
H           70.13       30.7        40.05       
H           69.69513    31.72913    41.25101    
H           62.44       26.35       42.86       
H           61.31489    27.83588    43.04511    
H           61.56       26.88       41.42       
C           63.72       29.81       38.15       
C           62.11       29.17       39.82       
C           62.4        29.73       38.55       
C           75.88       24.49       48.45       
S           74.3        23.87       48.1        
C           76.03       25.7        47.83       
C           74.94       26.1        47.06       
C           73.84       25.25       47.17       
N           74.62       27.22       46.29       
C           73.31       27.03       45.88       
C           72.82       25.82       46.42       
C           75.43       28.47       46.24       
H           74.91       29.24       45.67       
H           76.44       28.23       45.86       
H           75.53347    28.89076    47.24018    
H           72.57       28.7        44.72       
H           76.9        26.34       47.92       
C           72.37       27.74       45.11       
S           71.23       25.5        45.85       
C           71.19       27.06       44.96       
C           82.65       21.31       56.85       
C           83.14       22.06       55.72       
C           81.3        21.01       56.81       
C           80.59       21.23       55.72       
C           81.09       21.82       54.57       
C           82.4        22.17       54.57       
N           79.26       20.87       55.57       
C           78.8        21.31       54.37       
C           79.95       22.04       53.65       
O           77.7        21.01       53.99       
C           78.36       20.67       56.68       
C           79.73       22.68       52.47       
C           78.49       23.02       51.66       
C           78.97       23.62       50.44       
N           80.37       23.61       50.4        
C           80.85       23.19       51.57       
C           77.16       22.88       51.67       
O           82.07       23.13       51.7        
C           81.26       24.11       49.39       
H           82.78       22.64       53.71       
H           80.89       20.41       57.66       
H           84.09       22.62       55.85       
H           78.64       24.4        48.42       
H           76.68       22.52       52.55       
H           75.32       23.13       50.65       
H           77.51       20.13       56.34       
H           78.8        20.09       57.52       
H           78.02218    21.61878    57.09689    
H           82.0        24.76       49.9        
H           81.7488     23.28052    48.87898    
H           80.72       24.73       48.64       
C           76.36       23.29       50.6        
C           78.19       23.98       49.32       
C           76.82       23.86       49.42       
C           86.26       21.05       63.73       
S           84.55       20.67       63.32       
C           86.99       21.38       62.62       
C           86.24       21.27       61.43       
C           84.86       21.04       61.63       
N           86.49       21.36       60.02       
C           85.25       21.25       59.41       
C           84.26       21.06       60.39       
C           87.8        21.43       59.44       
H           87.69       21.34       58.39       
H           88.4        20.65       59.85       
H           88.30604    22.35774    59.70708    
H           85.35       21.45       57.17       
H           88.11       21.51       62.6        
C           84.8        21.24       58.07       
S           82.77       20.74       59.57       
C           83.48       21.19       58.01       
C           91.37       18.66       73.35       
C           91.86       19.58       72.43       
C           90.09       18.19       73.11       
C           89.42       18.6        71.94       
C           89.88       19.55       70.99       
C           91.14       20.01       71.3        
N           88.14       18.18       71.56       
C           87.73       18.86       70.52       
C           88.87       19.69       69.97       
O           86.51       18.85       70.14       
C           87.6        16.97       72.18       
C           88.88       20.43       68.82       
C           87.98       20.37       67.66       
C           88.48       21.25       66.67       
N           89.6        21.9        67.2        
C           89.91       21.55       68.49       
C           86.88       19.62       67.16       
O           90.85       22.04       69.05       
C           90.36       22.91       66.49       
H           91.72       20.71       70.72       
H           89.6        17.59       73.83       
H           92.84       19.94       72.62       
H           88.49       22.14       64.8        
H           86.48       18.86       67.79       
H           85.53       19.12       65.58       
H           88.42       16.22       72.27       
H           86.82       16.66       71.49       
H           87.01937    17.26381    73.05444    
H           90.67       23.78       67.13       
H           91.29542    22.48418    66.127      
H           89.73       23.37       65.74       
C           86.34       19.77       65.87       
C           88.0        21.4        65.42       
C           86.85       20.74       65.02       
C           95.23       15.06       79.1        
S           93.51       15.1        78.71       
C           95.91       16.06       78.47       
C           95.09       16.7        77.44       
C           93.75       16.21       77.37       
N           95.25       17.65       76.43       
C           94.05       17.76       75.74       
C           93.17       16.87       76.27       
C           96.44       18.24       75.94       
H           97.25       17.6        76.19       
H           96.42       18.37       74.91       
H           96.56555    19.19556    76.44917    
H           94.07       19.16       74.08       
H           96.92       16.26       78.61       
C           93.51       18.48       74.65       
S           91.59       16.91       75.49       
C           92.18       18.16       74.42       
C           99.39       9.05        87.74       
C           100.08      10.13       87.19       
C           98.13       8.68        87.2        
C           97.58       9.52        86.2        
C           98.19       10.66       85.65       
C           99.44       10.92       86.21       
N           96.43       9.22        85.49       
C           96.17       10.21       84.49       
C           97.43       11.19       84.5        
O           95.3        10.09       83.64       
C           95.47       8.15        85.76       
C           97.55       12.14       83.5        
C           96.68       12.69       82.42       
C           97.54       13.46       81.52       
N           98.87       13.44       81.95       
C           98.94       12.72       83.12       
C           95.35       12.65       82.0        
O           99.97       12.55       83.71       
C           99.98       13.25       80.96       
H           99.97       11.8        85.81       
H           97.64       7.8         87.6        
H           101.1       10.46       87.57       
H           97.73       14.88       79.99       
H           94.61       12.23       82.69       
H           93.82       13.39       80.55       
H           96.02       7.19        85.85       
H           94.85       8.09        84.98       
H           94.86284    8.29656     86.6533     
H           99.64       12.66       80.13       
H           100.4807    14.17271    80.66673    
H           100.7       12.58       81.45       
C           94.89       13.32       80.83       
C           97.07       14.12       80.38       
C           95.75       14.04       80.06       
C           102.62      3.0         91.33       
S           100.99      3.6         91.23       
C           103.5       3.93        90.89       
C           102.8       5.1         90.35       
C           101.44      5.03        90.44       
N           103.16      6.29        89.75       
C           101.99      6.95        89.42       
C           100.87      6.17        89.82       
C           104.52      6.6         89.31       
H           105.14      5.75        89.66       
H           104.51      6.77        88.24       
H           104.93458   7.39342     89.93187    
H           102.26      8.76        88.21       
H           104.58      3.75        90.9        
C           101.59      8.06        88.68       
S           99.39       6.93        89.37       
C           100.23      8.09        88.45       
C           105.36      -6.78       96.34       
C           106.34      -6.05       95.66       
C           104.02      -6.4        96.19       
C           103.72      -5.25       95.55       
C           104.71      -4.42       94.9        
C           106.06      -4.92       94.95       
N           102.47      -4.72       95.31       
C           102.52      -3.5        94.68       
C           103.98      -3.25       94.34       
O           101.5       -2.87       94.4        
C           101.34      -5.15       96.02       
C           104.36      -2.13       93.57       
C           103.61      -1.02       92.99       
C           104.52      -0.12       92.44       
N           105.84      -0.55       92.63       
C           105.83      -1.79       93.22       
C           102.29      -0.51       92.86       
O           106.84      -2.37       93.55       
C           107.06      0.22        92.41       
H           106.93      -4.39       94.58       
H           103.32      -6.94       96.74       
H           107.35      -6.38       95.65       
H           105.02      1.79        91.54       
H           101.53      -0.97       93.4        
H           100.95      1.16        92.41       
H           100.79      -4.27       96.35       
H           101.74      -5.61       96.9        
H           100.67435   -5.77404    95.42369    
H           106.99      0.81        91.52       
H           107.37071   0.90645     93.19762    
H           107.88      -0.44       92.47       
C           101.97      0.74        92.27       
C           104.19      1.13        91.89       
C           102.89      1.61        91.83       
C           106.79      -12.6       101.19      
S           105.22      -12.07      100.52      
C           107.91      -11.88      100.74      
C           107.49      -10.78      99.95       
C           106.08      -10.81      99.64       
N           108.12      -9.75       99.21       
C           107.08      -9.13       98.56       
C           105.81      -9.73       98.83       
C           109.51      -9.28       99.36       
H           109.68      -8.27       98.79       
H           110.27      -9.97       99.03       
H           109.79446   -9.00977    100.37694   
H           107.87      -7.44       97.41       
H           108.98      -12.06      101.04      
C           106.98      -8.01       97.7        
S           104.55      -8.78       98.0        
C           105.74      -7.81       97.22       
C           106.58      -22.4       106.41      
C           107.52      -21.93      105.48      
C           105.77      -21.46      106.96      
C           105.74      -20.17      106.39      
C           106.68      -19.68      105.54      
C           107.64      -20.63      105.1       
N           104.7       -19.31      106.52      
C           105.06      -18.12      105.95      
C           106.41      -18.24      105.32      
O           104.21      -17.17      105.86      
C           103.38      -19.64      107.03      
C           107.07      -17.27      104.57      
C           106.67      -16.01      103.88      
C           107.85      -15.55      103.19      
N           108.91      -16.41      103.45      
C           108.59      -17.41      104.33      
C           105.54      -15.25      103.64      
O           109.36      -18.25      104.87      
C           110.31      -16.11      103.1       
H           108.39      -20.33      104.47      
H           105.0       -21.83      107.64      
H           108.22      -22.58      105.04      
H           108.82      -14.14      101.85      
H           104.64      -15.55      104.08      
H           104.63      -13.68      102.57      
H           103.05      -20.59      106.59      
H           102.6       -18.95      106.59      
H           103.28712   -19.64      108.11604   
H           110.49      -15.02      103.02      
H           110.58423   -16.47804   102.11134   
H           110.92      -16.35      103.93      
C           105.56      -14.15      102.75      
C           107.91      -14.4       102.38      
C           106.76      -13.74      102.08      
C           105.63      -29.97      108.32      
S           104.81      -28.59      109.06      
C           106.44      -29.64      107.3       
C           106.5       -28.18      107.08      
C           105.62      -27.46      107.91      
N           107.27      -27.31      106.31      
C           106.79      -26.07      106.64      
C           105.82      -26.07      107.61      
C           108.14      -27.64      105.14      
H           108.81      -26.8       105.08      
H           107.66      -27.84      104.16      
H           108.80616   -28.4693    105.37791   
H           107.72      -24.58      105.32      
H           107.18      -30.37      106.95      
C           107.12      -24.79      106.17      
S           105.43      -24.43      108.02      
C           106.45      -23.82      106.73      
C           103.16      -40.17      112.67      
C           103.64      -40.08      111.34      
C           103.06      -38.98      113.43      
C           103.54      -37.78      112.88      
C           104.12      -37.62      111.57      
C           104.17      -38.87      110.82      
N           103.54      -36.51      113.51      
C           104.27      -35.59      112.87      
C           104.49      -36.17      111.46      
O           104.62      -34.49      113.33      
C           102.66      -36.26      114.7       
C           104.81      -35.39      110.3       
C           104.92      -33.91      110.11      
C           105.33      -33.71      108.74      
N           105.54      -34.95      108.16      
C           105.12      -36.01      108.96      
C           104.67      -32.71      110.82      
O           105.29      -37.17      108.58      
C           106.27      -35.21      106.88      
H           104.55      -38.94      109.86      
H           102.68      -39.07      114.42      
H           103.58      -40.95      110.69      
H           105.94      -32.38      107.19      
H           104.17      -32.83      111.81      
H           104.53      -30.56      110.73      
H           101.89      -36.97      114.69      
H           103.1       -36.19      115.66      
H           102.06562   -35.35427   114.57971   
H           106.35      -34.26      106.32      
H           107.24311   -35.66835   107.05629   
H           105.6       -35.88      106.37      
C           104.83      -31.43      110.2       
C           105.57      -32.46      108.22      
C           105.39      -31.26      108.92      
C           99.9        -46.46      116.21      
S           100.36      -44.88      116.83      
C           100.27      -46.57      114.87      
C           100.97      -45.46      114.39      
C           101.04      -44.37      115.33      
N           101.42      -44.99      113.17      
C           101.83      -43.64      113.35      
C           101.64      -43.19      114.67      
C           101.89      -45.83      112.07      
H           102.42      -45.23      111.33      
H           101.04      -46.34      111.55      
H           102.56219   -46.59322   112.46211   
H           102.71      -42.78      111.54      
H           100.12      -47.52      114.46      
C           102.34      -42.64      112.55      
S           102.07      -41.56      114.96      
C           102.53      -41.45      113.23      
C           93.17       -53.16      122.23      
C           93.46       -53.52      120.96      
C           93.46       -51.86      122.65      
C           94.07       -50.97      121.83      
C           94.59       -51.38      120.54      
C           94.21       -52.64      120.12      
N           94.48       -49.71      122.09      
C           95.09       -49.13      120.94      
C           95.47       -50.26      119.98      
O           95.37       -47.97      120.98      
C           94.41       -49.0       123.33      
C           96.3        -50.08      118.89      
C           97.22       -48.96      118.46      
C           97.79       -49.34      117.22      
N           97.47       -50.69      116.92      
C           96.68       -51.18      117.92      
C           97.59       -47.67      118.94      
O           96.38       -52.38      117.9       
C           98.35       -51.6       116.2       
H           94.36       -52.86      119.08      
H           93.21       -51.51      123.64      
H           93.23       -54.51      120.64      
H           99.02       -48.85      115.53      
H           97.17       -47.27      119.86      
H           98.82       -46.03      118.67      
H           94.15       -47.93      123.18      
H           93.5        -49.33      124.02      
H           95.32047    -49.12415   123.91629   
H           98.24       -52.6       116.48      
H           98.145      -51.54143   115.13106   
H           99.35       -51.43      116.52      
C           98.51       -46.94      118.2       
C           98.68       -48.52      116.51      
C           99.02       -47.29      116.98      
C           90.31       -58.83      126.84      
S           91.35       -58.83      125.43      
C           89.81       -57.54      127.06      
C           90.35       -56.53      126.21      
C           91.27       -57.05      125.26      
N           90.37       -55.14      126.06      
C           91.21       -54.82      125.0       
C           91.75       -55.97      124.47      
C           89.42       -54.23      126.6       
H           89.46       -53.32      126.03      
H           89.66       -54.03      127.65      
H           88.3976     -54.55936   126.41473   
H           91.31       -52.62      124.38      
H           89.22       -57.34      127.9       
C           91.61       -53.65      124.24      
S           92.64       -55.73      122.97      
C           92.48       -53.99      123.17      
H           46.76       49.85       10.68       
H           90.19       -59.7       127.47      
