512

C           46.45       0.79        19.42       
C           47.26       1.71        18.7        
C           45.16       0.59        19.0        
C           44.66       1.18        17.83       
C           45.47       2.12        17.11       
C           46.77       2.31        17.55       
N           43.37       1.03        17.27       
C           43.33       1.85        16.1        
C           44.62       2.6         15.98       
O           42.25       2.1         15.61       
C           42.43       -0.08       17.57       
C           44.73       3.68        15.11       
C           44.03       4.05        13.84       
C           44.48       5.32        13.42       
N           45.52       5.69        14.22       
C           45.7        4.84        15.31       
C           43.05       3.47        13.04       
O           46.55       5.2         16.17       
C           45.98       7.05        14.28       
H           47.51       2.92        16.98       
H           44.51       -0.03       19.58       
H           48.31       1.8         18.95       
H           44.16       7.04        12.12       
H           42.61       2.55        13.28       
H           41.81       3.66        11.19       
H           43.0        -0.82       18.15       
H           41.67       0.26        18.27       
H           41.98979    -0.54816    16.68958    
H           45.24       7.81        14.05       
H           46.85805    7.20834     13.65385    
H           46.33       7.2         15.33       
C           42.52       4.11        11.88       
C           43.8        6.05        12.44       
C           42.77       5.46        11.71       
C           50.15       -2.78       25.41       
S           50.85       -2.14       23.95       
C           48.77       -2.66       25.39       
C           48.34       -2.14       24.15       
C           49.32       -1.64       23.29       
N           47.12       -1.83       23.65       
C           47.27       -1.11       22.51       
C           48.63       -0.95       22.23       
C           45.78       -2.07       24.21       
H           44.9        -1.71       23.58       
H           45.65       -1.5        25.16       
H           45.58223    -3.11341    24.45551    
H           45.29       -0.96       21.48       
H           48.14       -2.78       26.28       
C           46.38       -0.82       21.45       
S           48.77       -0.09       20.75       
C           46.99       0.06        20.54       
C           56.53       -7.17       33.37       
C           55.78       -7.91       32.49       
C           56.28       -5.8        33.45       
C           55.36       -5.29       32.62       
C           54.63       -6.05       31.66       
C           54.84       -7.39       31.61       
N           55.14       -3.97       32.47       
C           54.28       -3.72       31.4        
C           53.86       -5.05       30.86       
O           53.9        -2.6        31.06       
C           55.88       -2.95       33.27       
C           52.93       -5.23       29.84       
C           52.42       -4.38       28.76       
C           51.33       -5.06       28.16       
N           51.3        -6.34       28.69       
C           52.16       -6.52       29.71       
C           52.73       -3.07       28.25       
O           52.28       -7.54       30.25       
C           50.64       -7.48       28.06       
H           54.35       -8.04       30.91       
H           56.94       -5.11       34.03       
H           55.98       -9.0        32.42       
H           49.78       -5.03       26.6        
H           53.5        -2.52       28.75       
H           52.32       -1.64       26.7        
H           56.24       -3.31       34.21       
H           56.8        -2.68       32.82       
H           55.39602    -1.98204    33.40003    
H           49.77       -7.16       27.59       
H           51.2876     -7.95162    27.32089    
H           50.38       -8.23       28.84       
C           52.04       -2.63       27.12       
C           50.56       -4.49       27.15       
C           50.97       -3.3        26.56       
C           62.72       -10.1       37.2        
S           62.36       -8.46       36.71       
C           61.57       -10.88      37.11       
C           60.55       -10.35      36.41       
C           60.77       -8.98       36.15       
N           59.29       -10.7       35.91       
C           58.76       -9.53       35.34       
C           59.66       -8.45       35.45       
C           58.51       -11.9       36.15       
H           57.75       -11.81      35.38       
H           58.09       -11.92      37.08       
H           59.1093     -12.77755   35.90743    
H           56.72       -9.91       34.5        
H           61.57       -11.9       37.54       
C           57.56       -9.21       34.61       
S           58.99       -7.0        34.75       
C           57.54       -7.84       34.19       
C           71.88       -12.77      43.08       
C           70.95       -13.7       42.61       
C           71.67       -11.44      42.76       
C           70.57       -11.08      41.93       
C           69.72       -12.08      41.38       
C           69.83       -13.38      41.84       
N           70.19       -9.86       41.47       
C           69.18       -10.0       40.49       
C           68.69       -11.39      40.53       
O           68.72       -9.04       39.85       
C           70.49       -8.6        42.13       
C           67.56       -11.77      39.83       
C           66.32       -11.08      39.21       
C           65.61       -12.08      38.53       
N           66.29       -13.28      38.63       
C           67.46       -13.18      39.37       
C           65.8        -9.78       39.28       
O           68.21       -14.09      39.46       
C           66.08       -14.45      37.82       
H           69.14       -14.18      41.57       
H           72.14       -10.58      43.21       
H           70.97       -14.77      42.87       
H           63.85       -12.6       37.3        
H           66.3        -9.04       39.88       
H           64.36       -8.45       38.61       
H           71.48       -8.58       42.61       
H           70.34       -7.77       41.53       
H           69.79292    -8.53098    42.96511    
H           67.0        -14.8       37.42       
H           65.4621     -15.18727   38.33258    
H           65.59       -14.08      36.89       
C           64.68       -9.5        38.54       
C           64.37       -11.83      37.84       
C           63.97       -10.45      37.83       
C           77.8        -15.82      47.11       
S           76.14       -16.31      46.96       
C           78.08       -14.56      46.55       
C           76.91       -14.11      45.76       
C           75.78       -14.9       45.97       
N           76.62       -13.03      44.92       
C           75.29       -13.22      44.56       
C           74.79       -14.42      45.13       
C           77.45       -11.81      44.81       
H           76.84       -11.09      44.26       
H           78.39       -12.03      44.21       
H           77.65635    -11.41865   45.80617    
H           74.45       -11.62      43.31       
H           79.05       -14.13      46.59       
C           74.27       -12.55      43.86       
S           73.15       -14.75      44.68       
C           73.1        -13.26      43.82       
C           85.04       -19.05      54.93       
C           85.45       -18.28      53.83       
C           83.77       -19.58      54.89       
C           82.95       -19.29      53.83       
C           83.31       -18.55      52.69       
C           84.61       -18.05      52.75       
N           81.62       -19.75      53.69       
C           81.04       -19.31      52.51       
C           82.14       -18.56      51.75       
O           79.89       -19.64      52.17       
C           80.95       -20.68      54.54       
C           81.9        -18.02      50.51       
C           80.65       -17.64      49.79       
C           81.05       -17.04      48.55       
N           82.38       -17.31      48.32       
C           82.96       -17.79      49.46       
C           79.29       -17.63      50.11       
O           84.08       -18.14      49.56       
C           83.05       -17.23      46.99       
H           85.05       -17.61      51.83       
H           83.39       -20.08      55.78       
H           86.46       -17.88      53.68       
H           80.47       -16.17      46.7        
H           78.93       -17.89      51.11       
H           77.38       -16.93      49.53       
H           81.49       -20.86      55.5        
H           79.93       -20.38      54.74       
H           80.89388    -21.65503   54.05599    
H           84.03       -17.44      47.0        
H           82.59397    -17.87259   46.23686    
H           82.98       -16.18      46.7        
C           78.38       -17.06      49.18       
C           80.15       -16.44      47.69       
C           78.82       -16.46      48.0        
C           89.39       -21.09      61.1        
S           87.73       -21.51      60.65       
C           89.93       -20.03      60.33       
C           89.03       -19.68      59.32       
C           87.76       -20.34      59.36       
N           88.94       -18.75      58.3        
C           87.78       -19.04      57.53       
C           87.02       -19.96      58.22       
C           89.76       -17.58      58.01       
H           89.23       -16.92      57.44       
H           90.64       -17.84      57.52       
H           89.99314    -17.10665   58.96377    
H           87.48       -17.76      55.78       
H           90.82       -19.57      60.5        
C           87.11       -18.61      56.33       
S           85.62       -20.4       57.34       
C           86.0        -19.38      55.99       
C           94.23       -27.52      69.05       
C           94.87       -27.02      67.87       
C           92.87       -27.21      69.15       
C           92.23       -26.34      68.22       
C           92.91       -25.76      67.14       
C           94.25       -26.12      66.97       
N           90.87       -26.07      68.07       
C           90.61       -25.24      66.96       
C           91.99       -24.87      66.41       
O           89.5        -24.83      66.65       
C           89.73       -26.73      68.68       
C           92.19       -24.0       65.32       
C           91.27       -23.42      64.29       
C           91.94       -22.37      63.57       
N           93.33       -22.33      63.93       
C           93.51       -23.34      64.92       
C           89.91       -23.54      63.91       
O           94.6        -23.59      65.42       
C           94.34       -21.57      63.25       
H           94.75       -25.68      66.15       
H           92.31       -27.67      69.93       
H           95.96       -27.09      67.71       
H           91.88       -20.79      62.11       
H           89.3        -24.37      64.31       
H           88.28       -23.17      62.63       
H           89.96       -27.79      68.7        
H           88.88       -26.65      67.97       
H           89.43242    -26.24372   69.60902    
H           95.12       -21.35      63.96       
H           94.59096    -21.98374   62.2733     
H           93.89       -20.56      63.2        
C           89.32       -22.89      62.92       
C           91.37       -21.58      62.57       
C           89.98       -21.83      62.23       
C           96.95       -31.71      75.02       
S           95.33       -31.23      74.48       
C           97.85       -31.33      74.06       
C           97.26       -30.54      72.99       
C           95.9        -30.47      73.02       
N           97.76       -29.91      71.86       
C           96.62       -29.49      71.2        
C           95.49       -29.92      71.84       
C           99.01       -30.13      71.26       
H           99.59       -30.88      71.81       
H           98.82       -30.58      70.31       
H           99.53829    -29.18198   71.15868    
H           97.08       -28.09      69.49       
H           98.9        -31.51      74.22       
C           96.31       -28.67      70.04       
S           94.07       -29.35      71.09       
C           94.98       -28.44      69.88       
C           97.79       -38.33      84.16       
C           98.86       -37.96      83.38       
C           96.64       -37.76      83.75       
C           96.49       -36.85      82.73       
C           97.58       -36.48      81.88       
C           98.81       -37.05      82.3        
N           95.37       -36.15      82.31       
C           95.55       -35.5       81.15       
C           97.06       -35.54      80.8        
O           94.72       -34.74      80.73       
C           94.04       -36.55      82.7        
C           97.66       -34.76      79.81       
C           97.26       -33.94      78.63       
C           98.35       -33.23      78.12       
N           99.49       -33.48      78.93       
C           99.15       -34.44      79.9        
C           96.0        -33.8       78.02       
O           99.97       -34.78      80.71       
C           100.87      -33.17      78.64       
H           99.78       -36.74      81.88       
H           95.78       -38.07      84.34       
H           99.84       -38.34      83.67       
H           99.04       -31.68      76.78       
H           95.03       -34.2       78.44       
H           94.9        -32.93      76.39       
H           93.98       -37.66      83.01       
H           93.3        -36.43      81.9        
H           93.64221    -35.92889   83.50255    
H           101.17      -33.22      77.59       
H           101.10659   -32.17344   79.01281    
H           101.43      -33.89      79.18       
C           95.87       -33.04      76.87       
C           98.21       -32.35      77.06       
C           96.99       -32.38      76.28       
C           99.91       -43.15      89.8        
S           100.68      -42.83      88.27       
C           98.76       -42.4       90.06       
C           98.48       -41.5       88.98       
C           99.43       -41.64      87.91       
N           97.56       -40.57      88.67       
C           97.84       -40.13      87.42       
C           99.01       -40.7       86.97       
C           96.48       -40.2       89.48       
H           96.95       -39.85      90.42       
H           95.98       -39.34      89.03       
H           95.80277    -41.04479   89.60567    
H           96.29       -38.68      86.77       
H           98.15       -42.55      90.93       
C           97.26       -39.22      86.57       
S           99.47       -40.08      85.47       
C           98.0        -39.12      85.4        
C           103.46      -52.92      93.11       
C           104.27      -52.04      92.48       
C           102.32      -52.42      93.67       
C           102.01      -51.07      93.57       
C           102.78      -50.18      92.81       
C           103.89      -50.73      92.2        
N           100.98      -50.49      94.16       
C           100.86      -49.2       93.75       
C           102.05      -48.86      92.88       
O           100.04      -48.47      94.26       
C           100.08      -51.09      95.14       
C           102.34      -47.66      92.23       
C           101.47      -46.55      91.83       
C           102.29      -45.66      91.08       
N           103.63      -46.06      91.15       
C           103.79      -47.21      91.85       
C           100.13      -46.23      91.99       
O           104.75      -47.91      91.97       
C           104.83      -45.13      91.08       
H           104.53      -50.04      91.67       
H           101.67      -53.1       94.15       
H           105.23      -52.42      92.09       
H           102.52      -43.82      89.97       
H           99.51       -46.86      92.51       
H           98.6        -44.93      91.36       
H           100.09      -50.41      96.03       
H           100.52      -52.1       95.38       
H           99.07204    -51.15256   94.72987    
H           105.54      -45.42      91.83       
H           105.31731   -45.15745   90.10538    
H           104.62      -44.11      91.44       
C           99.66       -45.12      91.29       
C           101.83      -44.51      90.46       
C           100.42      -44.25      90.6        
C           104.16      -60.61      94.44       
S           102.9       -59.48      94.79       
C           105.18      -60.01      93.79       
C           105.0       -58.64      93.56       
C           103.79      -58.22      94.0        
N           105.71      -57.56      92.98       
C           104.85      -56.5       93.04       
C           103.7       -56.86      93.71       
C           107.1       -57.35      92.68       
H           107.34      -56.32      92.93       
H           107.27      -57.36      91.59       
H           107.74031   -58.08178   93.17255    
H           105.68      -54.53      92.29       
H           106.05      -60.56      93.48       
C           104.86      -55.03      92.77       
S           102.75      -55.46      94.04       
C           103.8       -54.34      93.25       
C           103.35      -71.39      97.34       
C           104.11      -71.04      96.23       
C           102.73      -70.4       97.98       
C           102.93      -69.03      97.72       
C           103.75      -68.55      96.7        
C           104.25      -69.65      95.91       
N           102.27      -68.0       98.32       
C           102.68      -66.83      97.8        
C           103.75      -67.1       96.73       
O           102.25      -65.83      98.26       
C           101.46      -67.98      99.53       
C           104.37      -66.08      96.0        
C           104.08      -64.61      95.86       
C           104.81      -64.22      94.68       
N           105.56      -65.29      94.18       
C           105.37      -66.4       94.95       
C           103.27      -63.62      96.41       
O           105.99      -67.43      94.69       
C           106.36      -65.27      93.0        
H           104.91      -69.45      95.11       
H           102.04      -70.63      98.72       
H           104.75      -71.79      95.79       
H           105.48      -62.63      93.38       
H           102.55      -63.84      97.2        
H           102.55      -61.61      96.33       
H           100.66      -68.77      99.61       
H           100.95      -67.04      99.51       
H           102.10807   -67.95151   100.40596   
H           106.99      -64.33      93.0        
H           105.76708   -65.55923   92.13231    
H           107.12      -65.99      93.2        
C           103.26      -62.32      95.96       
C           104.86      -62.93      94.23       
C           104.07      -61.94      94.9        
C           102.52      -78.32      101.02      
S           102.42      -76.65      101.59      
C           102.96      -78.29      99.75       
C           103.09      -77.0       99.12       
C           102.82      -76.03      100.03      
N           103.3       -76.51      97.88       
C           103.21      -75.08      97.99       
C           102.95      -74.79      99.32       
C           103.87      -77.18      96.72       
H           104.4       -76.48      96.13       
H           103.17      -77.61      96.01       
H           104.51816   -77.99566   97.04044    
H           103.53      -74.0       96.08       
H           102.92      -79.22      99.27       
C           103.37      -73.94      97.15       
S           102.89      -73.06      99.46       
C           103.35      -72.75      97.82       
C           100.72      -86.18      108.82      
C           101.52      -86.46      107.71      
C           100.02      -84.96      108.84      
C           100.06      -84.07      107.76      
C           100.89      -84.37      106.6       
C           101.57      -85.59      106.65      
N           99.56       -82.78      107.71      
C           99.92       -82.24      106.48      
C           100.88      -83.18      105.73      
O           99.32       -81.21      106.09      
C           99.23       -81.91      108.8       
C           101.45      -82.79      104.55      
C           101.66      -81.47      103.88      
C           102.28      -81.74      102.63      
N           102.56      -83.07      102.5       
C           102.06      -83.79      103.59      
C           101.32      -80.09      104.02      
O           102.02      -85.0       103.56      
C           103.17      -83.82      101.43      
H           102.16      -85.88      105.87      
H           99.45       -84.65      109.71      
H           102.07      -87.41      107.61      
H           103.03      -81.07      100.69      
H           100.82      -79.72      104.86      
H           101.3       -78.13      103.31      
H           98.46       -81.23      108.52      
H           98.88       -82.41      109.66      
H           100.0566    -81.26467   109.09729   
H           103.07      -83.33      100.51      
H           104.23643   -83.97235   101.5962    
H           102.69      -84.77      101.33      
C           101.68      -79.11      103.08      
C           102.58      -80.78      101.64      
C           102.23      -79.45      101.91      
C           99.0        -90.02      115.35      
S           98.32       -88.61      114.62      
C           99.96       -90.66      114.63      
C           100.17      -89.92      113.4       
C           99.39       -88.79      113.32      
N           100.98      -90.06      112.23      
C           100.68      -88.9       111.49      
C           99.72       -88.14      112.09      
C           101.97      -91.04      111.93      
H           102.32      -90.99      110.91      
H           101.57      -92.05      112.11      
H           102.81972   -90.92178   112.60239   
H           102.01      -88.68      109.75      
H           100.56      -91.53      114.87      
C           101.18      -88.33      110.28      
S           99.48       -86.64      111.28      
C           100.58      -87.1       109.95      
C           94.02       -94.56      124.21      
C           95.34       -94.76      123.93      
C           93.43       -93.48      123.63      
C           94.13       -92.66      122.7       
C           95.49       -92.93      122.33      
C           96.12       -94.04      122.97      
N           93.75       -91.6       121.86      
C           94.7        -91.2       121.07      
C           95.93       -92.12      121.17      
O           94.56       -90.19      120.5       
C           92.35       -91.2       121.6       
C           96.98       -92.02      120.33      
C           97.19       -91.36      119.11      
C           98.48       -91.75      118.61      
N           99.1        -92.6       119.53      
C           98.34       -92.7       120.64      
C           96.54       -90.53      118.2       
O           98.81       -93.2       121.61      
C           100.35      -93.28      119.5       
H           97.13       -94.32      122.76      
H           92.38       -93.27      123.75      
H           95.91       -95.56      124.47      
H           100.08      -91.71      117.25      
H           95.52       -90.19      118.39      
H           96.59       -89.46      116.23      
H           91.56       -91.71      122.2       
H           92.26       -90.1       121.68      
H           92.09397    -91.54381   120.59783   
H           100.82      -93.47      120.46      
H           100.16205   -94.18496   118.92222   
H           101.03      -92.76      118.97      
C           97.09       -90.11      116.97      
C           99.09       -91.43      117.41      
C           98.4        -90.55      116.61      
C           90.3        -99.8       128.6       
S           92.01       -99.38      128.47      
C           89.53       -99.15      127.7       
C           90.25       -98.25      126.9       
C           91.58       -98.16      127.27      
N           90.03       -97.3       125.89      
C           91.33       -96.69      125.7       
C           92.29       -97.23      126.49      
C           88.82       -96.96      125.19      
H           89.18       -96.39      124.34      
H           88.09       -96.51      125.81      
H           88.29064    -97.8542    124.86094   
H           91.28       -95.06      124.13      
H           88.51       -99.43      127.56      
C           91.84       -95.66      124.87      
S           93.89       -96.74      126.04      
C           93.19       -95.55      124.99      
H           42.57       5.85        10.75       
H           89.98       -100.71     129.13      
