512

C           41.83       3.21        15.58       
C           40.55       3.01        16.13       
C           41.77       3.26        14.19       
C           40.59       3.22        13.52       
C           39.31       3.04        14.08       
C           39.33       2.91        15.45       
N           40.39       3.29        12.13       
C           39.13       3.21        11.7        
C           38.28       3.07        12.95       
O           38.79       3.31        10.54       
C           41.4        3.16        11.08       
C           36.88       3.0         12.81       
C           35.88       3.19        11.73       
C           34.65       2.86        12.29       
N           34.72       2.58        13.63       
C           36.0        2.53        14.01       
C           35.82       3.77        10.46       
O           36.3        2.26        15.17       
C           33.65       2.66        14.54       
H           38.44       2.78        15.99       
H           42.72       3.24        13.66       
H           40.41       2.9         17.23       
H           32.48       2.7         12.1        
H           36.72       4.22        10.0        
H           34.77       4.39        8.88        
H           42.36       2.77        11.41       
H           41.15       2.4         10.28       
H           41.55602    4.13865     10.62613    
H           32.84       2.1         14.26       
H           33.26584    3.66752     14.69946    
H           33.88       2.22        15.47       
C           34.68       3.87        9.8         
C           33.44       2.87        11.58       
C           33.46       3.45        10.32       
C           47.43       2.4         21.07       
S           45.86       1.73        20.87       
C           47.64       3.3         20.09       
C           46.62       3.37        19.08       
C           45.57       2.48        19.31       
N           46.36       4.03        17.85       
C           45.1        3.58        17.39       
C           44.61       2.59        18.23       
C           47.15       5.04        17.15       
H           46.39       5.44        16.4        
H           47.98       4.63        16.57       
H           47.41757    5.87701     17.79491    
H           44.19       4.75        15.68       
H           48.43       3.92        20.09       
C           44.13       3.91        16.38       
S           43.05       1.99        17.68       
C           43.02       3.15        16.43       
C           54.05       -2.12       28.76       
C           52.68       -2.49       28.59       
C           54.69       -1.32       27.8        
C           53.86       -0.58       26.94       
C           52.44       -0.83       26.83       
C           51.87       -1.84       27.62       
N           54.21       0.37        25.89       
C           53.06       0.82        25.22       
C           51.85       0.12        25.81       
O           53.12       1.52        24.25       
C           55.52       0.79        25.55       
C           50.51       0.3         25.44       
C           49.91       0.94        24.27       
C           48.47       0.9         24.36       
N           48.13       0.31        25.56       
C           49.27       0.0         26.28       
C           50.42       1.42        23.06       
O           49.19       -0.55       27.37       
C           46.76       0.28        26.08       
H           50.82       -2.07       27.69       
H           55.77       -1.06       27.8        
H           52.15       -3.12       29.28       
H           46.53       1.31        23.53       
H           51.46       1.34        22.74       
H           49.94       2.49        21.12       
H           56.23       0.33        26.25       
H           55.87       0.29        24.66       
H           55.67608    1.86839     25.57838    
H           46.22       1.09        25.67       
H           46.20983    -0.62989    25.84018    
H           46.95       0.39        27.17       
C           49.6        2.11        22.13       
C           47.64       1.45        23.42       
C           48.24       2.08        22.24       
C           58.79       -5.26       33.99       
S           59.11       -4.19       32.62       
C           57.52       -5.81       33.98       
C           56.77       -5.27       32.84       
C           57.45       -4.36       32.07       
N           55.53       -5.44       32.24       
C           55.39       -4.39       31.32       
C           56.57       -3.7        31.23       
C           54.42       -6.31       32.49       
H           53.92       -6.4        31.55       
H           53.67       -5.82       33.17       
H           54.7246     -7.27456    32.89613    
H           53.3        -4.21       30.52       
H           57.18       -6.47       34.68       
C           54.32       -3.83       30.55       
S           56.52       -2.45       30.08       
C           54.84       -2.89       29.71       
C           68.31       -6.09       40.03       
C           67.35       -7.05       40.18       
C           68.16       -5.2        38.9        
C           67.01       -5.22       38.14       
C           65.87       -5.96       38.51       
C           66.13       -6.94       39.54       
N           66.63       -4.26       37.17       
C           65.34       -4.4        36.76       
C           64.7        -5.42       37.69       
O           64.9        -3.53       35.98       
C           67.6        -3.45       36.48       
C           63.36       -5.8        37.58       
C           62.26       -5.51       36.58       
C           61.03       -6.09       36.93       
N           61.2        -6.7        38.13       
C           62.54       -6.66       38.54       
C           62.33       -4.89       35.31       
O           62.82       -7.12       39.61       
C           60.31       -7.63       38.84       
H           65.48       -7.64       39.87       
H           68.94       -4.49       38.69       
H           67.43       -7.77       41.03       
H           58.88       -6.28       36.59       
H           63.17       -4.35       34.97       
H           61.27       -4.3        33.6        
H           67.23       -2.48       36.38       
H           68.46       -3.6        36.99       
H           67.78041    -3.77474    35.45526    
H           60.87       -8.42       39.26       
H           59.6243     -7.17287    39.5534     
H           59.66       -8.01       38.05       
C           61.17       -4.9        34.53       
C           59.87       -6.0        36.17       
C           59.95       -5.43       34.91       
C           74.0        -6.25       45.64       
S           72.67       -7.4        45.34       
C           74.01       -5.2        44.75       
C           72.91       -5.29       43.8        
C           72.07       -6.42       43.95       
N           72.4        -4.57       42.78       
C           71.29       -5.17       42.23       
C           71.06       -6.38       42.93       
C           72.99       -3.38       42.36       
H           72.49       -3.05       41.47       
H           73.95       -3.47       42.04       
H           73.01223    -2.61686    43.13796    
H           70.55       -4.23       40.3        
H           74.75       -4.4        44.8        
C           70.41       -5.0        41.07       
S           69.75       -7.22       42.22       
C           69.46       -5.98       41.01       
C           81.61       -9.03       53.21       
C           81.76       -7.95       52.37       
C           80.36       -9.67       53.15       
C           79.38       -9.26       52.26       
C           79.53       -8.15       51.41       
C           80.79       -7.49       51.48       
N           78.08       -9.84       52.07       
C           77.47       -9.23       50.96       
C           78.29       -7.99       50.62       
O           76.39       -9.43       50.65       
C           77.58       -11.23      52.45       
C           77.81       -7.03       49.75       
C           76.79       -7.06       48.7        
C           76.72       -5.74       48.23       
N           77.67       -4.93       48.83       
C           78.39       -5.59       49.81       
C           76.07       -8.14       48.12       
O           79.22       -5.09       50.5        
C           77.62       -3.5        48.92       
H           81.07       -6.73       50.78       
H           80.09       -10.35      53.97       
H           82.77       -7.41       52.38       
H           75.57       -4.44       47.03       
H           76.22       -9.17       48.29       
H           74.72       -8.73       46.56       
H           78.32       -11.58      53.11       
H           76.63       -11.14      52.99       
H           77.5379     -11.90354   51.59404    
H           77.5        -3.21       50.0        
H           78.49693    -2.97955    48.53501    
H           76.74       -3.13       48.44       
C           75.31       -7.9        47.03       
C           75.76       -5.47       47.25       
C           74.98       -6.56       46.7        
C           86.59       -11.42      58.75       
S           84.83       -11.55      58.57       
C           87.11       -10.71      57.71       
C           86.08       -10.2       56.81       
C           84.79       -10.7       57.1        
N           85.99       -9.4        55.72       
C           84.67       -9.42       55.25       
C           83.9        -10.27      56.14       
C           87.06       -8.51       55.25       
H           86.6        -7.71       54.65       
H           87.74       -9.08       54.65       
H           87.63313    -8.09253    56.07786    
H           84.37       -8.32       53.44       
H           88.17       -10.57      57.53       
C           83.96       -8.92       54.21       
S           82.27       -10.26      55.59       
C           82.62       -9.32       54.18       
C           91.79       -15.94      67.69       
C           92.32       -16.02      66.4        
C           90.8        -15.01      67.86       
C           90.3        -14.19      66.75       
C           90.7        -14.48      65.45       
C           91.74       -15.38      65.25       
N           89.24       -13.26      66.79       
C           88.92       -12.81      65.55       
C           89.8        -13.6       64.55       
O           88.21       -11.79      65.29       
C           88.34       -12.98      67.92       
C           89.73       -13.48      63.14       
C           88.78       -12.81      62.22       
C           89.3        -12.99      60.93       
N           90.48       -13.71      60.9        
C           90.74       -14.05      62.17       
C           87.51       -12.18      62.36       
O           91.85       -14.49      62.28       
C           91.3        -14.06      59.79       
H           92.1        -15.69      64.31       
H           90.38       -14.96      68.81       
H           93.2        -16.65      66.21       
H           89.14       -12.34      58.95       
H           87.09       -12.01      63.33       
H           85.84       -11.41      61.44       
H           87.83       -13.85      68.29       
H           87.59       -12.38      67.46       
H           88.77596    -12.42255   68.74903    
H           92.33       -13.95      60.16       
H           90.98129    -14.98071   59.30131    
H           91.13       -13.26      59.0        
C           86.82       -11.83      61.25       
C           88.61       -12.39      59.85       
C           87.34       -11.9       59.95       
C           94.28       -20.82      73.16       
S           92.74       -19.97      72.99       
C           95.26       -20.28      72.36       
C           94.71       -19.37      71.51       
C           93.37       -19.07      71.7        
N           95.14       -18.7       70.36       
C           94.03       -17.96      69.9        
C           92.96       -18.12      70.75       
C           96.51       -18.71      69.7        
H           96.51       -17.83      69.06       
H           97.34       -18.67      70.42       
H           96.58888    -19.58485   69.05462    
H           94.38       -16.89      68.02       
H           96.28       -20.61      72.31       
C           93.72       -17.15      68.81       
S           91.57       -17.09      70.31       
C           92.4        -16.66      68.83       
C           96.27       -28.2       81.15       
C           97.22       -27.86      80.25       
C           95.05       -27.56      81.06       
C           94.77       -26.73      79.99       
C           95.71       -26.35      79.08       
C           97.0        -26.89      79.28       
N           93.62       -26.03      79.77       
C           93.69       -25.28      78.62       
C           95.07       -25.48      78.07       
O           92.74       -24.66      78.18       
C           92.42       -26.1       80.51       
C           95.6        -25.02      76.9        
C           95.13       -23.86      76.08       
C           95.84       -23.82      74.86       
N           96.99       -24.62      74.97       
C           96.87       -25.4       76.16       
C           94.11       -22.84      76.32       
O           97.53       -26.36      76.32       
C           98.1        -24.7       74.01       
H           97.8        -26.9       78.53       
H           94.29       -27.81      81.74       
H           98.22       -28.26      80.43       
H           96.02       -22.91      72.82       
H           93.57       -22.77      77.24       
H           93.22       -21.07      75.56       
H           92.23       -27.07      80.99       
H           91.56       -25.99      79.87       
H           92.34374    -25.26811   81.21017    
H           97.78       -24.38      73.03       
H           98.92306    -24.02134   74.23381    
H           98.43       -25.71      74.08       
C           93.96       -21.9       75.33       
C           95.49       -22.91      73.81       
C           94.51       -21.95      74.05       
C           98.32       -34.63      84.92       
S           98.69       -34.07      83.29       
C           97.68       -33.74      85.73       
C           97.4        -32.51      84.97       
C           98.0        -32.52      83.61       
N           96.64       -31.33      85.15       
C           96.83       -30.58      83.98       
C           97.72       -31.25      83.05       
C           96.14       -30.76      86.44       
H           95.13       -30.37      86.21       
H           95.95       -31.52      87.14       
H           96.88361    -30.17522   86.98146    
H           95.8        -28.6       83.94       
H           97.38       -33.96      86.71       
C           96.37       -29.34      83.44       
S           97.87       -30.38      81.54       
C           96.64       -29.24      82.08       
C           101.27      -45.11      87.28       
C           102.21      -44.1       87.0        
C           99.95       -44.67      87.53       
C           99.6        -43.33      87.35       
C           100.56      -42.36      86.97       
C           101.87      -42.76      86.94       
N           98.27       -42.81      87.29       
C           98.35       -41.48      86.94       
C           99.82       -41.12      86.65       
O           97.3        -40.92      86.77       
C           97.06       -43.59      87.5        
C           100.2       -39.95      86.02       
C           99.52       -38.64      85.91       
C           100.27      -37.77      85.15       
N           101.45      -38.46      84.79       
C           101.55      -39.79      85.28       
C           98.33       -38.1       86.4        
O           102.42      -40.5       84.94       
C           102.53      -37.87      84.08       
H           102.7       -42.08      86.56       
H           99.19       -45.42      87.61       
H           103.21      -44.31      86.81       
H           100.57      -35.99      84.07       
H           97.69       -38.6       87.11       
H           97.07       -36.38      86.68       
H           96.2        -42.95      87.71       
H           97.25       -44.21      88.35       
H           96.81352    -44.25412   86.67157    
H           103.41      -38.34      84.53       
H           102.48092   -38.01024   83.00017    
H           102.61      -36.79      84.36       
C           97.98       -36.75      86.18       
C           99.96       -36.49      84.75       
C           98.74       -35.96      85.29       
C           102.5       -52.55      88.91       
S           101.08      -51.76      88.38       
C           103.61      -51.81      88.75       
C           103.32      -50.47      88.27       
C           101.95      -50.28      88.11       
N           103.99      -49.29      87.96       
C           102.98      -48.33      87.75       
C           101.74      -48.96      87.73       
C           105.44      -49.11      87.8        
H           105.62      -48.1       87.55       
H           105.82      -49.77      87.03       
H           105.97167   -49.38676   88.7104     
H           103.86      -46.35      87.2        
H           104.6       -52.19      88.93       
C           102.97      -46.95      87.36       
S           100.51      -47.76      87.4        
C           101.7       -46.47      87.31       
C           102.18      -62.13      94.82       
C           103.29      -61.86      93.97       
C           101.28      -61.09      95.03       
C           101.3       -59.96      94.24       
C           102.4       -59.7       93.35       
C           103.38      -60.66      93.25       
N           100.36      -58.88      94.22       
C           100.91      -57.89      93.41       
C           102.15      -58.37      92.71       
O           100.42      -56.78      93.34       
C           98.93       -58.97      94.43       
C           102.83      -57.4       91.92       
C           102.48      -56.15      91.2        
C           103.68      -55.64      90.53       
N           104.77      -56.49      90.82       
C           104.34      -57.58      91.62       
C           101.33      -55.41      90.98       
O           105.2       -58.43      91.99       
C           106.08      -56.23      90.46       
H           104.22      -60.43      92.55       
H           100.47      -61.25      95.74       
H           104.04      -62.61      93.83       
H           104.52      -54.13      89.3        
H           100.31      -55.74      91.23       
H           100.47      -53.63      90.28       
H           98.55       -59.79      93.89       
H           98.38       -58.11      94.0        
H           98.73003    -58.89415   95.49881    
H           106.5       -55.18      90.52       
H           106.23412   -56.66434   89.47223    
H           106.57      -56.83      91.14       
C           101.36      -54.26      90.25       
C           103.65      -54.48      89.79       
C           102.47      -53.8       89.62       
C           101.99      -67.83      100.14      
S           100.66      -66.76      99.6        
C           103.18      -67.69      99.46       
C           103.06      -66.58      98.55       
C           101.79      -66.06      98.45       
N           103.88      -65.97      97.6        
C           103.16      -65.01      96.99       
C           101.87      -65.05      97.47       
C           104.99      -66.63      97.01       
H           105.39      -66.17      96.11       
H           104.64      -67.65      96.75       
H           105.78924   -66.62273   97.75112    
H           104.35      -63.8       95.6        
H           104.06      -68.32      99.65       
C           103.36      -64.02      96.03       
S           100.92      -63.87      96.65       
C           102.3       -63.25      95.79       
C           99.43       -75.34      108.13      
C           100.75      -75.12      107.7       
C           98.38       -74.84      107.34      
C           98.68       -74.02      106.28      
C           100.02      -73.72      105.9       
C           101.05      -74.34      106.63      
N           97.85       -73.31      105.44      
C           98.59       -72.68      104.48      
C           100.06      -72.67      104.89      
O           98.04       -72.05      103.59      
C           96.44       -72.93      105.7       
C           101.07      -71.86      104.24      
C           101.01      -70.86      103.09      
C           102.33      -70.42      102.79      
N           103.23      -71.12      103.56      
C           102.59      -71.96      104.47      
C           100.04      -70.21      102.24      
O           103.16      -72.65      105.25      
C           104.68      -70.84      103.61      
H           102.03      -74.26      106.21      
H           97.35       -75.0       107.65      
H           101.56      -75.46      108.35      
H           103.64      -69.04      101.77      
H           98.99       -70.52      102.4       
H           99.55       -68.83      100.73      
H           95.97       -72.92      104.79      
H           95.91       -73.52      106.45      
H           96.36828    -71.88287   105.99406   
H           105.1       -70.76      102.58      
H           104.9951    -69.93133   104.12296   
H           105.2       -71.67      104.09      
C           100.33      -69.26      101.34      
C           102.61      -69.44      101.81      
C           101.63      -68.82      101.06      
C           97.22       -78.72      114.88      
S           96.44       -77.49      113.85      
C           98.48       -78.98      114.47      
C           98.88       -78.26      113.31      
C           97.8        -77.57      112.78      
N           100.0       -78.06      112.54      
C           99.5        -77.31      111.42      
C           98.13       -77.08      111.53      
C           101.33      -78.65      112.74      
H           102.01      -78.1       112.14      
H           101.24      -79.72      112.41      
H           101.60275   -78.62847   113.7951    
H           101.17      -77.11      109.93      
H           99.08       -79.62      115.11      
C           100.06      -76.92      110.15      
S           97.61       -76.16      110.13      
C           99.19       -76.16      109.34      
C           92.94       -83.43      124.26      
C           93.75       -84.19      123.38      
C           92.6        -82.17      123.79      
C           93.01       -81.65      122.53      
C           93.95       -82.41      121.7       
C           94.23       -83.68      122.13      
N           92.74       -80.44      121.94      
C           93.26       -80.4       120.63      
C           94.26       -81.54      120.51      
O           93.02       -79.37      119.92      
C           92.06       -79.39      122.61      
C           95.15       -81.67      119.39      
C           95.48       -80.73      118.29      
C           96.52       -81.39      117.55      
N           96.83       -82.7       118.02      
C           95.98       -82.92      119.09      
C           95.06       -79.47      117.79      
O           95.98       -84.03      119.56      
C           97.93       -83.54      117.62      
H           94.94       -84.31      121.56      
H           92.05       -81.5       124.38      
H           94.07       -85.23      123.64      
H           97.75       -81.32      115.75      
H           94.25       -78.92      118.22      
H           95.1        -77.97      116.28      
H           92.04       -79.58      123.63      
H           92.65       -78.44      122.45      
H           91.07712    -79.19342   122.18174   
H           98.08       -83.49      116.49      
H           98.87454    -83.29671   118.10658   
H           97.67       -84.53      117.87      
C           95.62       -78.89      116.71      
C           97.03       -80.77      116.36      
C           96.63       -79.47      116.0       
C           91.54       -87.14      130.89      
S           91.86       -87.85      129.33      
C           91.27       -85.8       130.89      
C           91.48       -85.25      129.59      
C           91.85       -86.21      128.68      
N           91.6        -83.96      129.05      
C           92.0        -84.09      127.75      
C           92.11       -85.49      127.49      
C           91.54       -82.62      129.68      
H           92.08       -81.94      129.03      
H           92.14       -82.52      130.59      
H           90.50768    -82.34612   129.8977    
H           92.35       -82.13      126.74      
H           91.11       -85.27      131.8       
C           92.34       -83.23      126.67      
S           92.6        -85.67      125.82      
C           92.55       -83.96      125.56      
H           32.56       4.08        10.12       
H           91.74       -87.75      131.8       
