512

C           42.64       6.99        7.32        
C           41.4        6.86        7.93        
C           42.66       7.22        5.9         
C           41.47       7.45        5.2         
C           40.18       7.31        5.8         
C           40.22       6.97        7.17        
N           41.32       7.81        3.88        
C           39.99       7.86        3.5         
C           39.15       7.48        4.75        
O           39.69       8.13        2.37        
C           42.26       8.65        3.21        
C           37.77       7.29        4.86        
C           36.63       7.72        3.99        
C           35.42       7.33        4.65        
N           35.6        6.58        5.75        
C           37.03       6.49        5.93        
C           36.46       8.5         2.82        
O           37.42       5.62        6.64        
C           34.57       6.02        6.6         
H           39.33       7.0         7.66        
H           43.66       7.43        5.48        
H           41.29       6.62        8.94        
H           33.17       7.32        4.46        
H           37.36       8.9         2.3         
H           35.2        9.58        1.53        
H           43.2        8.24        3.31        
H           41.99       8.87        2.15        
H           42.33128    9.60513     3.73033     
H           33.77       5.74        6.0         
H           34.21753    6.73185     7.34641     
H           34.86       5.15        7.2         
C           35.24       8.9         2.37        
C           34.15       7.75        4.11        
C           34.05       8.53        3.04        
C           48.46       5.33        12.2        
S           46.74       5.24        12.31       
C           48.87       6.05        11.08       
C           47.75       6.38        10.26       
C           46.52       5.98        10.78       
N           47.52       6.9         9.02        
C           46.16       6.84        8.73        
C           45.57       6.26        9.84        
C           48.51       7.27        8.03        
H           48.03       7.85        7.21        
H           48.91       6.44        7.44        
H           49.22816    7.98816     8.42572     
H           45.52       7.56        6.71        
H           49.91       6.23        10.92       
C           45.21       7.18        7.65        
S           43.88       6.18        9.69        
C           43.89       6.88        8.07        
C           54.87       1.99        20.96       
C           53.54       1.62        20.9        
C           55.22       3.05        20.07       
C           54.43       3.38        18.99       
C           53.11       2.93        18.83       
C           52.66       2.12        19.92       
N           54.81       4.12        17.97       
C           53.87       4.27        17.03       
C           52.64       3.5         17.54       
O           54.04       5.05        16.11       
C           56.14       4.7         17.81       
C           51.4        3.46        16.89       
C           50.96       4.02        15.54       
C           49.56       3.86        15.49       
N           49.07       3.24        16.62       
C           50.08       2.89        17.47       
C           51.48       4.68        14.4        
O           49.84       2.49        18.62       
C           47.74       3.27        17.16       
H           51.77       1.59        19.77       
H           56.26       3.42        20.12       
H           53.13       0.86        21.52       
H           47.61       4.27        14.49       
H           52.53       4.64        14.24       
H           51.11       5.6         12.53       
H           56.91       4.17        18.33       
H           56.41       4.63        16.74       
H           56.17582    5.66713     18.31147    
H           47.01       3.75        16.48       
H           47.30908    2.27819     17.2968     
H           47.68       3.85        18.1        
C           50.67       5.18        13.41       
C           48.69       4.42        14.5        
C           49.24       4.99        13.39       
C           60.03       -0.76       26.13       
S           60.25       -0.13       24.51       
C           58.68       -0.78       26.41       
C           57.87       -0.19       25.42       
C           58.55       0.19        24.31       
N           56.54       0.07        25.21       
C           56.39       0.71        23.99       
C           57.59       0.68        23.35       
C           55.52       -0.09       26.26       
H           54.71       0.44        25.88       
H           55.82       0.31        27.21       
H           55.2515     -1.13647    26.40458    
H           54.23       1.14        23.44       
H           58.21       -1.35       27.2        
C           55.31       1.14        23.23       
S           57.43       1.31        21.75       
C           55.71       1.51        21.99       
C           68.09       -3.36       33.2        
C           66.74       -3.27       33.51       
C           68.44       -2.97       31.89       
C           67.46       -2.82       30.93       
C           66.05       -2.87       31.25       
C           65.77       -3.1        32.58       
N           67.62       -2.61       29.53       
C           66.37       -2.52       28.97       
C           65.28       -2.65       30.02       
O           66.11       -2.41       27.79       
C           68.79       -2.07       28.87       
C           63.9        -2.79       29.76       
C           63.05       -2.16       28.7        
C           61.73       -2.54       28.91       
N           61.64       -3.29       30.1        
C           62.86       -3.52       30.67       
C           63.36       -1.29       27.67       
O           63.07       -4.07       31.7        
C           60.52       -3.93       30.64       
H           64.81       -3.09       32.91       
H           69.42       -2.93       31.64       
H           66.35       -3.47       34.5        
H           59.76       -2.51       28.1        
H           64.39       -0.94       27.51       
H           62.51       -0.16       26.08       
H           69.67       -2.4        29.4        
H           68.97       -2.43       27.92       
H           68.72515    -0.98195    28.86279    
H           60.76       -4.82       31.25       
H           59.87567    -3.18828    31.11201    
H           60.14       -4.44       29.77       
C           62.29       -0.79       26.91       
C           60.73       -2.15       28.01       
C           61.06       -1.31       26.98       
C           72.12       -5.8        39.47       
S           70.43       -5.33       39.31       
C           72.78       -5.75       38.29       
C           71.93       -5.41       37.23       
C           70.68       -5.0        37.61       
N           72.02       -5.2        35.89       
C           70.78       -4.69       35.44       
C           69.94       -4.62       36.48       
C           73.16       -5.51       35.0        
H           73.02       -5.2        33.96       
H           73.41       -6.53       34.76       
H           74.09811    -5.03731    35.29089    
H           70.89       -4.3        33.25       
H           73.87       -5.98       38.17       
C           70.25       -4.26       34.14       
S           68.47       -3.83       35.91       
C           68.99       -3.81       34.22       
C           77.25       -10.56      48.22       
C           77.78       -9.47       47.6        
C           75.92       -10.88      47.94       
C           75.25       -10.25      46.92       
C           75.8        -9.26       46.15       
C           77.08       -8.86       46.51       
N           73.91       -10.52      46.51       
C           73.64       -9.77       45.34       
C           74.81       -8.86       45.15       
O           72.58       -9.78       44.87       
C           73.06       -11.63      46.99       
C           74.82       -7.97       44.05       
C           73.8        -7.52       43.02       
C           74.55       -6.75       42.06       
N           75.81       -6.5        42.47       
C           76.05       -7.25       43.58       
C           72.41       -7.54       42.8        
O           77.22       -7.44       43.81       
C           76.72       -5.55       41.86       
H           77.57       -8.11       45.99       
H           75.38       -11.65      48.48       
H           78.74       -9.11       47.85       
H           74.67       -5.58       40.31       
H           71.66       -8.03       43.42       
H           70.89       -7.06       41.51       
H           73.45       -12.19      47.85       
H           72.12       -11.34      47.35       
H           72.92004    -12.34381   46.17822    
H           76.52       -5.35       40.83       
H           76.81738    -4.57621    42.33994    
H           77.72       -6.06       41.86       
C           71.93       -6.92       41.64       
C           74.05       -6.19       40.93       
C           72.68       -6.31       40.68       
C           81.73       -14.03      53.64       
S           82.1        -13.27      52.09       
C           80.37       -14.0       53.82       
C           79.62       -13.43      52.7        
C           80.45       -12.93      51.68       
N           78.3        -13.14      52.3        
C           78.37       -12.5       51.11       
C           79.67       -12.21      50.72       
C           77.06       -13.58      52.79       
H           76.27       -13.37      52.02       
H           76.75       -13.02      53.72       
H           77.01727    -14.66241   52.91106    
H           76.3        -12.01      50.38       
H           79.92       -14.28      54.73       
C           77.41       -12.0       50.26       
S           79.73       -11.22      49.31       
C           78.0        -11.3       49.24       
C           89.96       -17.08      60.83       
C           90.33       -16.43      59.61       
C           88.66       -17.45      60.88       
C           87.64       -16.99      60.06       
C           87.92       -16.27      58.83       
C           89.35       -16.1       58.61       
N           86.24       -17.28      60.14       
C           85.69       -16.63      59.06       
C           86.67       -15.95      58.13       
O           84.47       -16.76      58.94       
C           85.65       -18.42      60.84       
C           86.31       -15.36      56.92       
C           84.99       -14.99      56.37       
C           85.24       -14.48      55.01       
N           86.63       -14.39      54.78       
C           87.34       -15.0       55.82       
C           83.69       -15.01      56.7        
O           88.56       -15.1       55.83       
C           87.34       -13.95      53.57       
H           89.7        -15.68      57.71       
H           88.34       -17.94      61.82       
H           91.33       -16.11      59.49       
H           84.59       -13.8       53.19       
H           83.35       -15.19      57.74       
H           81.59       -14.84      56.07       
H           86.46       -19.16      61.04       
H           84.93       -18.89      60.2        
H           85.17566    -18.07702   61.75949    
H           86.78       -14.16      52.7        
H           87.59707    -12.89316   53.64141    
H           88.27       -14.47      53.47       
C           82.65       -14.7       55.81       
C           84.25       -14.08      54.18       
C           82.91       -14.26      54.56       
C           93.7        -19.23      67.32       
S           92.03       -19.33      66.77       
C           94.43       -18.55      66.33       
C           93.71       -18.27      65.14       
C           92.34       -18.58      65.22       
N           93.9        -17.7       63.92       
C           92.64       -17.67      63.29       
C           91.69       -18.24      64.06       
C           95.01       -16.82      63.5        
H           95.88       -17.43      63.17       
H           94.66       -16.13      62.65       
H           95.32373    -16.19254   64.33424    
H           92.72       -16.57      61.3        
H           95.5        -18.25      66.43       
C           92.11       -17.08      62.09       
S           90.19       -18.24      63.31       
C           90.85       -17.34      61.95       
C           95.39       -24.52      76.78       
C           96.51       -23.97      76.1        
C           94.11       -24.18      76.32       
C           93.99       -23.35      75.26       
C           95.11       -22.69      74.62       
C           96.4        -23.12      75.01       
N           92.82       -22.88      74.79       
C           93.03       -21.95      73.73       
C           94.51       -21.82      73.55       
O           92.1        -21.36      73.11       
C           91.46       -23.44      75.03       
C           95.09       -21.14      72.52       
C           94.51       -20.89      71.17       
C           95.44       -19.99      70.53       
N           96.49       -19.69      71.41       
C           96.43       -20.49      72.5        
C           93.42       -21.33      70.43       
O           97.3        -20.44      73.28       
C           97.47       -18.59      71.29       
H           97.22       -22.68      74.53       
H           93.22       -24.58      76.95       
H           97.48       -24.14      76.37       
H           95.97       -18.78      68.77       
H           92.68       -22.04      70.85       
H           92.35       -20.99      68.6        
H           91.52       -24.51      75.03       
H           90.81       -23.27      74.14       
H           91.10839    -23.03098   75.97719    
H           97.72       -18.24      72.26       
H           98.37156    -18.79426   70.71244    
H           97.02       -17.76      70.78       
C           93.23       -20.74      69.18       
C           95.26       -19.41      69.26       
C           94.06       -19.74      68.61       
C           97.7        -29.18      82.46       
S           98.47       -28.58      81.02       
C           96.37       -28.77      82.53       
C           96.03       -27.85      81.47       
C           97.07       -27.74      80.54       
N           94.94       -27.14      81.1        
C           95.29       -26.46      79.93       
C           96.61       -26.83      79.58       
C           93.73       -27.0       81.82       
H           93.9        -26.83      82.85       
H           93.13       -26.13      81.45       
H           93.15459    -27.92503   81.78358    
H           93.68       -25.13      79.02       
H           95.63       -29.13      83.29       
C           94.65       -25.51      79.01       
S           97.05       -26.1       78.12       
C           95.49       -25.36      77.97       
C           102.37      -38.23      87.25       
C           103.02      -37.56      86.17       
C           101.26      -37.59      87.86       
C           100.77      -36.4       87.23       
C           101.42      -35.75      86.13       
C           102.58      -36.34      85.69       
N           99.63       -35.71      87.61       
C           99.44       -34.62      86.77       
C           100.62      -34.58      85.79       
O           98.61       -33.74      87.03       
C           98.8        -35.91      88.81       
C           100.61      -33.46      84.91       
C           99.63       -32.46      84.38       
C           100.31      -31.53      83.54       
N           101.66      -31.83      83.44       
C           101.95      -32.96      84.25       
C           98.28       -32.19      84.58       
O           103.09      -33.46      84.36       
C           102.64      -31.18      82.5        
H           103.14      -35.88      84.85       
H           100.7       -37.96      88.71       
H           103.86      -38.07      85.7        
H           100.39      -29.69      82.43       
H           97.76       -32.85      85.28       
H           96.61       -30.95      84.08       
H           98.69       -34.91      89.25       
H           99.18       -36.61      89.54       
H           97.78646    -36.15062   88.48917    
H           103.67      -31.27      82.85       
H           102.5427    -31.458     81.45055    
H           102.59      -30.1       82.45       
C           97.69       -31.11      83.97       
C           99.77       -30.39      83.04       
C           98.38       -30.23      83.15       
C           104.06      -44.9       90.88       
S           102.59      -44.1       90.68       
C           105.07      -44.24      90.32       
C           104.72      -43.08      89.66       
C           103.32      -42.81      89.77       
N           105.29      -42.1       88.84       
C           104.28      -41.2       88.53       
C           103.06      -41.58      89.1        
C           106.62      -42.09      88.31       
H           106.67      -41.25      87.56       
H           106.79      -43.08      87.85       
H           107.33278   -41.77638   89.07268    
H           104.98      -39.38      87.38       
H           106.09      -44.65      90.49       
C           104.18      -39.94      87.85       
S           101.8       -40.44      88.7        
C           102.88      -39.44      87.78       
C           103.87      -55.1       95.86       
C           104.68      -54.89      94.74       
C           103.03      -54.08      96.25       
C           103.05      -52.82      95.63       
C           103.88      -52.55      94.47       
C           104.69      -53.61      94.07       
N           102.21      -51.75      95.95       
C           102.45      -50.73      95.01       
C           103.63      -51.15      94.13       
O           101.89      -49.68      95.06       
C           101.0       -51.88      96.76       
C           104.28      -50.24      93.33       
C           103.91      -48.87      92.8        
C           105.05      -48.41      92.08       
N           106.06      -49.42      92.1        
C           105.7       -50.46      92.84       
C           102.89      -47.96      92.8        
O           106.43      -51.39      93.13       
C           107.37      -49.25      91.48       
H           105.19      -53.47      93.18       
H           102.48      -54.21      97.14       
H           105.35      -55.62      94.28       
H           106.07      -46.91      90.93       
H           101.99      -48.18      93.28       
H           102.18      -46.04      92.45       
H           100.68      -52.9       96.52       
H           100.25      -51.13      96.38       
H           101.14986   -51.68926   97.82267    
H           107.86      -48.34      91.77       
H           107.31241   -49.38678   90.40015    
H           108.02      -50.04      91.83       
C           102.99      -46.66      92.2        
C           105.1       -47.17      91.39       
C           104.08      -46.22      91.5        
C           103.01      -61.99      99.39       
S           102.31      -60.44      99.79       
C           104.16      -61.83      98.66       
C           104.28      -60.5       98.2        
C           103.24      -59.57      98.62       
N           105.07      -59.83      97.29       
C           104.48      -58.59      97.09       
C           103.38      -58.44      97.88       
C           106.34      -60.31      96.66       
H           106.97      -59.49      96.25       
H           106.04      -61.01      95.84       
H           107.0299    -60.78603   97.3568     
H           105.63      -57.42      95.56       
H           104.7       -62.65      98.22       
C           104.8       -57.43      96.31       
S           102.69      -56.78      97.76       
C           103.88      -56.43      96.49       
C           99.16       -69.86      106.19      
C           99.79       -70.24      105.01      
C           99.17       -68.52      106.56      
C           99.75       -67.52      105.75      
C           100.32      -67.93      104.49      
C           100.19      -69.29      104.14      
N           100.07      -66.22      106.02      
C           100.76      -65.67      104.9       
C           100.89      -66.79      103.87      
O           101.29      -64.51      104.88      
C           99.84       -65.45      107.21      
C           101.42      -66.52      102.65      
C           101.56      -65.3       101.83      
C           102.46      -65.53      100.72      
N           102.8       -66.88      100.73      
C           102.19      -67.54      101.81      
C           101.15      -63.96      101.96      
O           102.42      -68.72      101.97      
C           103.63      -67.53      99.7        
H           100.54      -69.62      103.21      
H           98.9        -68.24      107.55      
H           99.74       -71.28      104.71      
H           103.76      -64.61      99.14       
H           100.33      -63.78      102.61      
H           101.15      -61.98      101.32      
H           99.66       -66.21      107.95      
H           100.82      -65.03      107.5       
H           99.08079    -64.6759    107.09835   
H           103.56      -67.08      98.71       
H           104.69193   -67.57956   99.94071    
H           103.27      -68.51      99.67       
C           101.62      -62.88      101.17      
C           102.98      -64.5       99.89       
C           102.53      -63.18      100.12      
C           97.2        -74.28      112.26      
S           97.39       -72.52      112.1       
C           97.39       -74.94      111.07      
C           97.74       -74.08      110.01      
C           97.71       -72.72      110.4       
N           98.05       -74.12      108.64      
C           98.32       -72.82      108.2       
C           98.05       -71.95      109.24      
C           98.16       -75.23      107.8       
H           98.71       -74.96      106.93      
H           97.17       -75.55      107.54      
H           98.73617    -76.01503   108.28975   
H           99.13       -72.73      106.14      
H           97.33       -75.99      110.93      
C           98.78       -72.19      106.98      
S           98.24       -70.31      108.7       
C           98.67       -70.86      107.11      
C           94.95       -79.22      122.04      
C           96.21       -79.26      121.38      
C           93.98       -78.29      121.49      
C           94.34       -77.47      120.37      
C           95.54       -77.71      119.63      
C           96.52       -78.54      120.19      
N           93.49       -76.59      119.6       
C           94.09       -76.21      118.36      
C           95.47       -76.91      118.35      
O           93.53       -75.47      117.54      
C           92.21       -76.09      120.01      
C           96.2        -76.91      117.24      
C           96.28       -76.02      115.97      
C           97.02       -76.69      115.04      
N           97.34       -78.01      115.42      
C           96.95       -78.22      116.75      
C           95.91       -74.7       115.7       
O           97.13       -79.32      117.29      
C           97.57       -79.05      114.5       
H           97.44       -78.68      119.71      
H           93.0        -78.17      121.91      
H           97.05       -79.79      121.74      
H           97.84       -76.79      113.05      
H           95.4        -74.07      116.42      
H           95.96       -73.14      114.37      
H           92.07       -76.14      121.02      
H           92.15       -75.02      119.85      
H           91.38049    -76.4261    119.38787   
H           96.94       -78.85      113.56      
H           98.60072    -79.13758   114.15643   
H           97.24       -79.96      115.0       
C           96.35       -74.11      114.55      
C           97.26       -76.19      113.8       
C           96.91       -74.91      113.5       
C           95.09       -83.9       128.3       
S           96.18       -83.48      127.01      
C           93.85       -83.23      128.04      
C           93.96       -82.36      126.95      
C           95.15       -82.36      126.29      
N           93.14       -81.39      126.27      
C           93.84       -80.9       125.22      
C           95.09       -81.45      125.22      
C           92.06       -80.66      126.83      
H           91.53       -80.0       126.14      
H           92.42       -80.06      127.69      
H           91.3496     -81.32734   127.31795   
H           92.71       -79.56      123.9       
H           93.02       -83.31      128.76      
C           93.66       -80.03      124.14      
S           96.11       -80.9       123.92      
C           94.77       -79.94      123.35      
H           33.17       9.13        2.8         
H           95.09       -84.79      128.84      
