512

C           44.74       20.11       13.69       
C           43.55       20.18       14.4        
C           44.83       20.91       12.55       
C           43.71       21.57       12.08       
C           42.47       21.61       12.82       
C           42.5        20.92       13.95       
N           43.69       22.46       10.95       
C           42.39       22.91       10.87       
C           41.54       22.51       12.07       
O           42.19       23.6        9.84        
C           44.83       23.01       10.17       
C           40.22       22.97       12.27       
C           39.23       23.73       11.43       
C           38.06       23.89       12.27       
N           38.28       23.36       13.6        
C           39.51       22.77       13.62       
C           39.12       24.15       10.05       
O           39.79       22.19       14.64       
C           37.41       23.63       14.79       
H           41.64       20.86       14.55       
H           45.8        20.89       12.0        
H           43.28       19.57       15.22       
H           36.1        24.4        12.51       
H           39.92       23.98       9.37        
H           37.77       25.12       8.59        
H           45.66       22.36       10.09       
H           44.44       23.08       9.21        
H           45.05307    24.02078    10.51157    
H           36.42       23.26       14.54       
H           37.29007    24.69522    14.98752    
H           37.79       23.09       15.71       
C           37.95       24.79       9.66        
C           36.93       24.44       11.83       
C           36.79       24.84       10.5        
C           50.12       15.75       17.16       
S           48.36       16.0        17.41       
C           50.56       16.42       16.08       
C           49.55       17.16       15.36       
C           48.35       17.07       16.06       
N           49.39       18.04       14.31       
C           48.04       18.43       14.31       
C           47.35       17.87       15.4        
C           50.28       18.06       13.15       
H           50.02       18.85       12.43       
H           50.26       17.11       12.63       
H           51.32853    18.20462    13.41032    
H           47.5        19.95       12.85       
H           51.62       16.44       15.95       
C           47.12       19.31       13.61       
S           45.59       18.12       15.3        
C           45.87       19.3        14.13       
C           56.11       10.64       25.35       
C           54.78       10.73       25.43       
C           56.64       11.15       24.18       
C           55.86       11.71       23.15       
C           54.48       11.83       23.28       
C           53.92       11.31       24.41       
N           56.41       12.22       21.99       
C           55.37       12.75       21.27       
C           54.06       12.46       21.97       
O           55.49       13.39       20.23       
C           57.76       12.49       21.69       
C           52.85       13.0        21.49       
C           52.29       13.57       20.21       
C           51.0        13.98       20.35       
N           50.56       13.65       21.61       
C           51.59       13.18       22.38       
C           52.85       13.77       18.96       
O           51.41       12.85       23.53       
C           49.22       13.88       22.16       
H           52.84       11.24       24.5        
H           57.71       11.17       24.06       
H           54.24       10.3        26.3        
H           49.17       15.01       19.6        
H           53.8        13.39       18.71       
H           52.63       14.67       17.11       
H           58.42       11.88       22.21       
H           58.02       12.13       20.71       
H           58.00321    13.55127    21.74159    
H           48.51       14.4        21.46       
H           48.64633    13.03039    22.53034    
H           49.22       14.66       23.01       
C           52.13       14.49       18.0        
C           50.22       14.67       19.41       
C           50.85       15.03       18.22       
C           61.75       7.43        29.5        
S           61.81       8.49        28.13       
C           60.48       7.14        29.88       
C           59.5        7.72        29.12       
C           60.06       8.51        28.11       
N           58.08       7.64        29.04       
C           57.76       8.56        28.02       
C           58.93       9.02        27.46       
C           57.16       6.81        29.87       
H           56.21       6.85        29.34       
H           57.03       7.19        30.86       
H           57.53199    5.79075     29.97416    
H           55.54       8.96        27.73       
H           60.27       6.55        30.79       
C           56.6        9.14        27.42       
S           58.67       10.08       26.14       
C           56.9        9.94        26.39       
C           70.52       2.17        34.13       
C           69.45       2.67        34.89       
C           70.41       2.25        32.77       
C           69.26       2.88        32.25       
C           68.15       3.32        33.01       
C           68.34       3.3         34.41       
N           69.1        3.06        30.85       
C           67.9        3.69        30.65       
C           67.22       3.93        31.98       
O           67.47       3.86        29.49       
C           70.12       3.02        29.82       
C           65.98       4.53        32.05       
C           65.07       5.15        31.13       
C           64.1        5.88        31.89       
N           64.24       5.61        33.27       
C           65.26       4.64        33.39       
C           64.91       5.4         29.73       
O           65.48       4.11        34.45       
C           63.76       6.4         34.42       
H           67.6        3.67        35.16       
H           71.18       1.89        32.07       
H           69.46       2.56        35.96       
H           62.35       7.12        32.07       
H           65.64       5.13        28.99       
H           63.76       6.21        28.04       
H           70.98       2.4         30.07       
H           69.71       2.49        28.92       
H           70.53836    4.00074     29.59368    
H           63.53       5.81        35.34       
H           64.43585    7.21813     34.669      
H           62.83       6.76        34.11       
C           63.85       6.06        29.13       
C           63.05       6.59        31.38       
C           62.91       6.68        29.98       
C           75.21       -3.01       37.51       
S           73.46       -2.81       37.56       
C           75.82       -2.12       36.61       
C           74.86       -1.22       36.04       
C           73.58       -1.45       36.5        
N           74.86       -0.11       35.2        
C           73.56       0.37        35.22       
C           72.69       -0.52       35.89       
C           76.08       0.75        35.01       
H           75.87       1.58        34.37       
H           76.9        0.25        34.51       
H           76.40415    1.13898     35.97525    
H           73.3        2.14        33.77       
H           76.86       -2.13       36.49       
C           72.87       1.44        34.54       
S           71.03       0.1         35.79       
C           71.54       1.43        34.83       
C           80.27       -10.22      44.66       
C           81.0        -9.4        43.81       
C           78.85       -10.23      44.45       
C           78.27       -9.4        43.54       
C           79.0        -8.57       42.6        
C           80.4        -8.64       42.82       
N           76.92       -9.29       43.26       
C           76.72       -8.3        42.28       
C           78.06       -7.68       41.85       
O           75.63       -8.24       41.73       
C           75.92       -10.02      44.13       
C           78.17       -6.65       40.9        
C           77.24       -5.85       40.03       
C           77.97       -4.89       39.33       
N           79.33       -4.94       39.75       
C           79.57       -6.02       40.62       
C           75.83       -5.91       39.76       
O           80.68       -6.38       40.85       
C           80.32       -3.83       39.72       
H           81.13       -8.05       42.28       
H           78.22       -10.93      45.04       
H           82.1        -9.43       43.94       
H           77.82       -3.17       38.0        
H           75.23       -6.65       40.17       
H           74.05       -4.96       38.87       
H           75.45       -10.85      43.65       
H           76.38       -10.34      45.03       
H           75.10942    -9.32318    44.34331    
H           81.0        -3.87       40.53       
H           80.76817    -3.77122    38.72814    
H           79.69       -2.91       39.9        
C           75.18       -4.95       38.96       
C           77.28       -3.93       38.56       
C           75.92       -3.94       38.34       
C           83.99       -13.91      50.59       
S           84.56       -13.78      48.89       
C           82.97       -13.04      50.87       
C           82.41       -12.51      49.66       
C           83.14       -12.8       48.49       
N           81.37       -11.66      49.32       
C           81.33       -11.57      47.93       
C           82.39       -12.21      47.43       
C           80.2        -11.49      50.18       
H           79.61       -10.71      49.82       
H           80.47       -11.14      51.17       
H           79.66656    -12.41462   50.40049    
H           79.48       -10.4       47.27       
H           82.58       -12.86      51.9        
C           80.42       -10.94      47.02       
S           82.36       -12.0       45.68       
C           80.83       -11.11      45.71       
C           89.44       -20.18      58.25       
C           90.12       -19.57      57.2        
C           88.01       -20.14      58.23       
C           87.31       -19.41      57.28       
C           87.98       -18.74      56.25       
C           89.39       -18.88      56.25       
N           85.93       -19.42      57.1        
C           85.57       -18.58      56.04       
C           86.85       -18.15      55.37       
O           84.37       -18.34      55.76       
C           85.02       -20.36      57.69       
C           86.93       -17.37      54.22       
C           86.0        -16.57      53.4        
C           86.67       -16.03      52.26       
N           87.99       -16.42      52.31       
C           88.18       -17.27      53.36       
C           84.67       -16.2       53.51       
O           89.31       -17.66      53.65       
C           88.95       -16.18      51.18       
H           90.02       -18.61      55.44       
H           87.46       -20.65      59.04       
H           91.15       -19.65      57.1        
H           86.66       -14.69      50.6        
H           84.1        -16.51      54.37       
H           82.96       -15.22      52.62       
H           85.53       -20.93      58.4        
H           84.65       -21.05      56.99       
H           84.22309    -19.86012   58.24059    
H           88.43       -16.11      50.22       
H           89.65837    -15.35479   51.25303    
H           89.52       -17.08      51.0        
C           84.05       -15.39      52.55       
C           86.11       -15.11      51.41       
C           84.75       -14.77      51.49       
C           92.93       -23.48      64.36       
S           91.26       -22.94      64.08       
C           93.73       -23.2       63.32       
C           93.02       -22.62      62.23       
C           91.67       -22.49      62.46       
N           93.32       -22.23      60.88       
C           92.15       -21.8       60.37       
C           91.12       -21.92      61.29       
C           94.46       -22.64      60.15       
H           94.95       -23.51      60.62       
H           94.22       -22.97      59.21       
H           95.1836     -21.84475   59.97089    
H           92.16       -20.95      58.25       
H           94.74       -23.29      63.29       
C           91.64       -21.23      59.16       
S           89.56       -21.41      60.71       
C           90.31       -20.86      59.23       
C           94.84       -28.15      74.48       
C           95.83       -28.15      73.46       
C           93.72       -27.39      74.16       
C           93.55       -26.75      72.91       
C           94.6        -26.68      71.97       
C           95.72       -27.43      72.26       
N           92.51       -25.97      72.54       
C           92.71       -25.42      71.3        
C           94.09       -25.92      70.81       
O           91.86       -24.72      70.8        
C           91.23       -25.69      73.21       
C           94.61       -25.53      69.53       
C           93.99       -25.11      68.26       
C           94.92       -24.95      67.21       
N           96.16       -25.35      67.63       
C           96.03       -25.66      69.02       
C           92.61       -24.86      67.91       
O           96.91       -26.15      69.72       
C           97.21       -25.66      66.84       
H           96.39       -27.56      71.55       
H           92.95       -27.37      74.9        
H           96.7        -28.85      73.5        
H           95.4        -24.33      65.3        
H           91.88       -24.97      68.63       
H           91.3        -24.2       66.48       
H           91.12       -26.35      74.03       
H           90.33       -25.8       72.51       
H           91.25761    -24.72381   73.7138     
H           96.9        -25.78      65.84       
H           98.06344    -24.98436   66.8969     
H           97.48       -26.65      67.15       
C           92.3        -24.38      66.69       
C           94.58       -24.5       65.99       
C           93.24       -24.09      65.67       
C           96.32       -32.77      80.71       
S           96.97       -32.83      79.15       
C           95.31       -31.88      80.77       
C           95.12       -31.13      79.57       
C           95.99       -31.51      78.54       
N           94.17       -30.15      79.16       
C           94.62       -29.82      77.9        
C           95.67       -30.62      77.49       
C           93.2        -29.53      80.06       
H           93.56       -29.52      81.09       
H           93.03       -28.5       79.8        
H           92.28558    -30.11784   80.13983    
H           93.21       -28.39      76.85       
H           94.65       -31.82      81.68       
C           94.1        -28.97      76.83       
S           96.23       -30.17      75.89       
C           94.9        -28.96      75.67       
C           101.56      -40.14      86.92       
C           102.27      -39.32      86.03       
C           100.31      -39.71      87.41       
C           99.78       -38.47      86.94       
C           100.42      -37.73      85.91       
C           101.69      -38.24      85.45       
N           98.5        -37.98      87.15       
C           98.25       -36.86      86.38       
C           99.44       -36.73      85.39       
O           97.17       -36.21      86.52       
C           97.39       -38.65      87.81       
C           99.5        -35.77      84.43       
C           98.47       -35.09      83.72       
C           99.09       -34.2       82.76       
N           100.44      -34.26      82.85       
C           100.78      -35.23      83.77       
C           97.02       -35.03      83.74       
O           101.98      -35.46      84.06       
C           101.35      -33.24      82.39       
H           102.18      -37.76      84.69       
H           99.75       -40.28      88.12       
H           103.14      -39.7       85.59       
H           98.9        -32.99      80.95       
H           96.47       -35.63      84.38       
H           95.2        -34.22      82.86       
H           96.84       -37.94      88.33       
H           97.78       -39.32      88.58       
H           96.74598    -39.13125   87.07397    
H           102.08      -33.05      83.17       
H           101.88499   -33.54673   81.49122    
H           100.78      -32.31      82.32       
C           96.29       -34.16      82.89       
C           98.4        -33.48      81.78       
C           96.99       -33.49      81.82       
C           103.39      -47.36      89.43       
S           101.9       -46.52      89.21       
C           104.4       -46.71      88.81       
C           104.06      -45.39      88.27       
C           102.67      -45.16      88.39       
N           104.6       -44.26      87.69       
C           103.59      -43.28      87.5        
C           102.36      -43.91      87.89       
C           105.94      -44.19      87.11       
H           106.0       -43.18      86.77       
H           106.0       -44.72      86.18       
H           106.72401   -44.35427   87.84921    
H           104.23      -41.39      86.67       
H           105.36      -47.08      88.75       
C           103.4       -41.95      87.03       
S           101.04      -42.79      87.7        
C           102.09      -41.5       87.17       
C           103.79      -57.36      94.31       
C           104.81      -56.8       93.51       
C           102.65      -56.61      94.4        
C           102.48      -55.38      93.73       
C           103.5       -54.88      92.85       
C           104.71      -55.59      92.81       
N           101.36      -54.57      93.68       
C           101.55      -53.55      92.76       
C           102.99      -53.65      92.24       
O           100.63      -52.79      92.46       
C           100.14      -54.63      94.55       
C           103.54      -52.82      91.32       
C           103.18      -51.42      90.86       
C           104.15      -50.98      89.97       
N           104.97      -52.04      89.67       
C           104.69      -53.16      90.4        
C           102.2       -50.5       91.28       
O           105.22      -54.23      90.06       
C           106.19      -51.81      88.96       
H           105.54      -55.38      92.13       
H           101.86      -57.03      95.03       
H           105.68      -57.44      93.38       
H           104.96      -49.44      88.78       
H           101.41      -50.75      91.99       
H           101.5       -48.39      91.07       
H           99.63       -55.6       94.32       
H           99.46       -53.77      94.32       
H           100.39597   -54.61578   95.60942    
H           106.53      -50.83      89.15       
H           106.19      -51.9752    87.88259    
H           106.91      -52.47      89.46       
C           102.24      -49.15      90.78       
C           104.19      -49.72      89.47       
C           103.32      -48.73      89.94       
C           103.81      -64.1       98.08       
S           102.66      -62.76      98.11       
C           104.99      -63.77      97.43       
C           104.93      -62.43      96.88       
C           103.7       -61.81      97.19       
N           105.72      -61.58      96.11       
C           104.91      -60.47      95.82       
C           103.7       -60.59      96.49       
C           107.12      -61.68      96.12       
H           107.58      -60.89      95.49       
H           107.37      -62.69      95.8        
H           107.55076   -61.48228   97.10156    
H           105.98      -59.23      94.49       
H           105.89      -64.35      97.28       
C           105.11      -59.38      95.04       
S           102.71      -59.36      96.05       
C           104.03      -58.59      95.09       
C           100.21      -72.77      103.95      
C           100.88      -73.03      102.77      
C           100.44      -71.58      104.63      
C           101.08      -70.55      103.92      
C           101.53      -70.7       102.59      
C           101.49      -72.01      102.12      
N           101.44      -69.27      104.46      
C           101.86      -68.48      103.46      
C           102.03      -69.39      102.16      
O           102.1       -67.27      103.71      
C           101.13      -68.8       105.82      
C           102.65      -68.88      101.02      
C           102.82      -67.57      100.46      
C           103.66      -67.63      99.3        
N           104.21      -68.89      99.29       
C           103.56      -69.71      100.15      
C           102.35      -66.3       100.77      
O           103.78      -70.9       100.17      
C           105.31      -69.36      98.54       
H           102.19      -72.29      101.27      
H           99.93       -71.36      105.53      
H           100.93      -73.99      102.23      
H           104.57      -66.63      97.63       
H           101.85      -66.14      101.65      
H           102.33      -64.22      100.33      
H           100.99      -69.64      106.49      
H           101.94      -68.12      106.13      
H           100.26577   -68.13576   105.82      
H           105.12      -69.1       97.46       
H           106.26133   -68.94729   98.87576    
H           105.39      -70.48      98.61       
C           102.59      -65.19      99.96       
C           103.88      -66.5       98.49       
C           103.4       -65.26      98.84       
C           96.68       -77.35      109.15      
S           96.04       -76.03      108.22      
C           97.91       -77.77      108.68      
C           98.42       -76.97      107.58      
C           97.55       -75.91      107.3       
N           99.57       -76.8       106.88      
C           99.46       -75.7       106.08      
C           98.21       -75.17      106.28      
C           100.7       -77.74      106.93      
H           101.59      -77.28      106.38      
H           100.54      -78.59      106.26      
H           100.99375   -77.93344   107.96169   
H           101.39      -75.44      104.83      
H           98.49       -78.54      109.11      
C           100.35      -75.1       105.12      
S           97.99       -73.7       105.36      
C           99.71       -73.88      104.74      
C           91.45       -79.75      118.69      
C           92.54       -80.47      118.22      
C           91.02       -78.72      117.89      
C           91.57       -78.47      116.62      
C           92.71       -79.17      116.08      
C           93.14       -80.2       116.96      
N           91.18       -77.57      115.68      
C           91.95       -77.61      114.53      
C           93.06       -78.69      114.72      
O           91.69       -76.88      113.55      
C           89.95       -76.73      115.82      
C           94.11       -79.01      113.86      
C           94.46       -78.61      112.45      
C           95.71       -79.21      112.18      
N           96.19       -79.94      113.29      
C           95.36       -79.77      114.36      
C           93.87       -77.83      111.42      
O           95.69       -80.21      115.41      
C           97.16       -81.03      113.3       
H           93.94       -80.92      116.74      
H           90.22       -78.05      118.24      
H           92.83       -81.38      118.74      
H           97.42       -79.32      111.01      
H           92.89       -77.32      111.49      
H           94.21       -76.86      109.63      
H           89.54       -77.01      116.77      
H           90.22       -75.74      115.95      
H           89.19154    -76.94974   115.06863   
H           97.12       -81.43      112.32      
H           98.1889     -80.70394   113.45216   
H           96.95       -81.79      114.02      
C           94.65       -77.55      110.33      
C           96.44       -78.87      111.1       
C           95.94       -78.0       110.19      
C           88.27       -82.6       125.28      
S           89.81       -82.99      124.43      
C           87.73       -81.4       124.85      
C           88.42       -80.94      123.7       
C           89.56       -81.7       123.3       
N           88.26       -79.96      122.73      
C           89.34       -80.09      121.83      
C           90.16       -81.18      122.16      
C           87.21       -79.0       122.6       
H           87.31       -78.37      121.78      
H           87.2        -78.39      123.55      
H           86.2376     -79.46506   122.43793   
H           89.22       -78.6       120.14      
H           86.85       -80.98      125.17      
C           89.72       -79.46      120.59      
S           91.55       -81.3       121.07      
C           90.82       -80.08      119.99      
H           36.01       25.54       10.18       
H           87.89       -83.11      126.13      
