512

C           28.9        18.98       3.43        
C           28.24       17.73       3.17        
C           28.04       20.02       3.76        
C           26.65       19.9        3.73        
C           26.01       18.7        3.38        
C           26.86       17.59       3.12        
N           25.68       20.85       4.06        
C           24.39       20.4        3.84        
C           24.51       18.9        3.38        
O           23.45       21.18       4.17        
C           25.94       22.1        4.83        
C           23.37       18.17       3.02        
C           21.96       18.43       2.77        
C           21.25       17.21       2.45        
N           22.21       16.15       2.39        
C           23.44       16.66       2.78        
C           21.19       19.62       2.6         
O           24.4        15.91       3.0         
C           22.06       14.93       1.65        
H           26.51       16.64       2.8         
H           28.47       21.04       3.93        
H           28.8        16.79       3.04        
H           19.43       16.18       2.0         
H           21.57       20.59       2.85        
H           19.32       20.43       2.31        
H           27.0        22.27       4.98        
H           25.54       22.96       4.24        
H           25.51396    22.10687    5.83326     
H           21.49       15.29       0.8         
H           21.80343    14.05767    2.2511      
H           23.03       14.78       1.25        
C           19.89       19.52       2.33        
C           19.92       17.13       2.12        
C           19.19       18.33       2.16        
C           36.49       17.57       3.23        
S           35.18       17.0        2.2         
C           36.11       18.77       3.82        
C           34.73       19.03       3.71        
C           34.05       18.14       2.83        
N           33.86       19.94       4.23        
C           32.64       19.57       3.77        
C           32.74       18.55       2.84        
C           34.25       20.97       5.24        
H           33.26       21.26       5.69        
H           34.82       21.83       4.78        
H           34.7948     20.59724    6.10738     
H           30.95       20.51       4.84        
H           36.83       19.34       4.4         
C           31.28       19.92       4.02        
S           31.17       18.1        2.26        
C           30.33       19.16       3.36        
C           46.84       13.44       2.72        
C           45.9        12.91       1.9         
C           46.51       14.64       3.3         
C           45.27       15.26       3.18        
C           44.24       14.74       2.35        
C           44.65       13.56       1.64        
N           44.83       16.28       3.94        
C           43.52       16.53       3.75        
C           43.06       15.56       2.68        
O           42.98       17.56       4.13        
C           45.78       17.38       4.28        
C           41.71       15.53       2.26        
C           40.5        16.16       2.65        
C           39.48       15.92       1.7         
N           39.96       15.05       0.74        
C           41.28       14.81       0.95        
C           40.14       16.94       3.75        
O           41.92       14.19       0.12        
C           39.35       14.85       -0.62       
H           43.97       13.03       1.04        
H           47.21       15.12       3.89        
H           46.0        11.94       1.41        
H           37.47       16.08       1.05        
H           40.83       17.12       4.56        
H           38.53       17.92       4.82        
H           46.7        17.39       3.66        
H           45.43       18.31       3.93        
H           45.89216    17.38       5.36421     
H           40.1        14.91       -1.34       
H           38.77884    13.92187    -0.64142    
H           38.65       15.67       -0.74       
C           38.84       17.48       3.88        
C           38.22       16.38       1.81        
C           37.9        17.18       2.94        
C           54.19       10.8        3.89        
S           53.41       12.38       4.19        
C           53.26       9.86        3.5         
C           51.98       10.43       3.31        
C           51.89       11.79       3.68        
N           50.67       10.05       2.86        
C           49.77       11.17       3.02        
C           50.55       12.29       3.37        
C           50.53       8.98        1.96        
H           49.46       9.02        1.69        
H           50.63       7.99        2.39        
H           51.146      8.98708     1.06078     
H           47.66       10.66       2.54        
H           53.45       8.82        3.2         
C           48.4        11.45       2.72        
S           49.61       13.71       3.35        
C           48.16       12.8        2.82        
C           65.26       10.81       5.74        
C           64.65       9.67        5.23        
C           64.55       11.98       5.9         
C           63.14       11.97       5.72        
C           62.44       10.82       5.24        
C           63.22       9.66        5.01        
N           62.28       13.01       5.95        
C           61.0        12.72       5.52        
C           61.06       11.25       4.98        
O           60.16       13.55       5.24        
C           62.61       14.35       6.51        
C           59.95       10.63       4.36        
C           58.49       10.81       4.49        
C           57.85       9.79        3.75        
N           58.76       8.99        3.14        
C           60.01       9.33        3.56        
C           57.65       11.7        5.11        
O           61.05       8.7         3.23        
C           58.56       7.87        2.11        
H           62.85       8.67        4.69        
H           64.97       12.87       6.31        
H           65.25       8.8         5.02        
H           56.02       8.91        2.95        
H           58.02       12.58       5.55        
H           55.74       12.4        5.59        
H           63.65       14.53       6.29        
H           61.97       15.11       6.09        
H           62.58843    14.25652    7.59577     
H           59.54       7.54        1.64        
H           57.97127    7.02281     2.4618      
H           58.1        8.31        1.3         
C           56.25       11.59       5.04        
C           56.47       9.74        3.52        
C           55.66       10.72       4.16        
C           72.63       11.3        7.89        
S           71.44       12.58       7.86        
C           72.25       10.19       7.25        
C           70.98       10.3        6.77        
C           70.36       11.5        7.0         
N           70.14       9.54        6.02        
C           68.91       10.15       6.09        
C           69.02       11.4        6.61        
C           70.33       8.34        5.29        
H           69.38       8.09        4.86        
H           70.77       7.57        6.0         
H           71.01445    8.50229     4.45736     
H           67.39       8.89        5.22        
H           72.86       9.35        7.08        
C           67.59       9.82        5.67        
S           67.48       12.17       6.77        
C           66.69       10.8        5.94        
C           82.42       13.89       12.83       
C           81.46       13.0        13.45       
C           82.06       14.43       11.61       
C           80.8        14.21       11.1        
C           79.82       13.39       11.71       
C           80.21       12.79       12.9        
N           80.31       14.72       9.91        
C           78.94       14.4        9.78        
C           78.64       13.29       10.77       
O           78.42       14.8        8.78        
C           81.0        15.6        8.96        
C           77.57       12.42       10.65       
C           76.35       12.4        9.77        
C           75.72       11.14       10.07       
N           76.38       10.44       11.09       
C           77.49       11.13       11.52       
C           75.76       13.18       8.77        
O           78.21       10.58       12.42       
C           75.73       9.51        11.96       
H           79.55       12.2        13.51       
H           82.83       14.87       10.96       
H           81.72       12.35       14.3        
H           74.32       9.73        9.55        
H           76.23       14.14       8.53        
H           74.11       13.43       7.45        
H           82.12       15.75       9.13        
H           80.98       15.16       7.97        
H           80.58243    16.60626    8.99423     
H           74.69       9.63        11.88       
H           76.0742     8.48442     11.82653    
H           75.91       9.79        12.97       
C           74.58       12.81       8.17        
C           74.62       10.73       9.39        
C           73.97       11.59       8.47        
C           89.55       15.37       15.42       
S           88.71       16.04       14.05       
C           88.81       14.46       16.14       
C           87.62       14.14       15.47       
C           87.38       14.99       14.43       
N           86.43       13.56       15.82       
C           85.56       13.81       14.75       
C           86.08       14.78       13.93       
C           86.16       13.02       17.15       
H           85.17       12.52       17.2        
H           86.31       13.65       17.97       
H           86.69746    12.07238    17.18536    
H           83.63       12.79       15.05       
H           89.08       14.09       17.16       
C           84.24       13.37       14.48       
S           84.91       15.23       12.72       
C           83.73       14.08       13.4        
C           100.25      18.29       16.7        
C           99.47       18.98       15.85       
C           99.61       17.52       17.64       
C           98.34       17.16       17.53       
C           97.49       17.65       16.49       
C           98.1        18.62       15.68       
N           97.65       16.22       18.29       
C           96.27       16.13       17.94       
C           96.13       17.07       16.76       
O           95.38       15.54       18.58       
C           98.1        15.63       19.52       
C           94.87       17.32       16.19       
C           93.68       16.5        16.01       
C           92.74       17.37       15.33       
N           93.3        18.57       14.99       
C           94.63       18.63       15.39       
C           93.24       15.2        16.39       
O           95.23       19.69       15.19       
C           92.71       19.72       14.3        
H           97.56       19.22       15.05       
H           100.17      17.15       18.45       
H           99.9        19.84       15.37       
H           90.77       17.79       14.79       
H           93.91       14.5        16.89       
H           91.59       13.89       16.46       
H           97.26       15.22       20.05       
H           98.56       16.3        20.24       
H           98.64314    14.71028    19.30274    
H           93.29       20.64       14.33       
H           92.31329    19.47377    13.31507    
H           91.87       19.95       14.9        
C           91.89       14.96       16.28       
C           91.42       16.99       15.21       
C           90.98       15.76       15.67       
C           108.11      18.43       17.4        
S           106.9       17.48       18.28       
C           107.5       19.25       16.46       
C           106.07      19.22       16.52       
C           105.57      18.27       17.41       
N           104.99      19.73       15.84       
C           103.84      19.14       16.31       
C           104.17      18.2        17.27       
C           105.13      20.85       14.84       
H           104.18      21.14       14.59       
H           105.7       21.65       15.17       
H           105.69723   20.46484    13.99265    
H           102.08      20.11       15.38       
H           108.01      19.89       15.81       
C           102.48      19.36       16.11       
S           102.74      17.48       17.85       
C           101.68      18.53       16.81       
C           118.61      15.87       20.0        
C           118.34      16.28       18.7        
C           117.57      15.63       20.87       
C           116.31      16.04       20.59       
C           115.95      16.62       19.31       
C           116.97      16.65       18.32       
N           115.25      16.08       21.44       
C           114.15      16.56       20.86       
C           114.52      17.02       19.42       
O           113.04      16.53       21.46       
C           115.36      15.73       22.86       
C           113.66      17.55       18.49       
C           112.25      17.7        18.4        
C           111.85      18.45       17.31       
N           113.01      18.81       16.56       
C           114.16      18.27       17.21       
C           111.17      17.17       19.12       
O           115.24      18.53       16.73       
C           113.06      19.51       15.3        
H           116.73      16.9        17.3        
H           117.8       15.17       21.85       
H           119.14      16.2        17.95       
H           110.39      19.25       15.93       
H           111.41      16.54       19.97       
H           109.03      17.03       19.38       
H           114.65      16.27       23.43       
H           116.33      15.85       23.27       
H           115.19051   14.66146    22.99265    
H           112.2       19.37       14.59       
H           113.3218    20.55718    15.45157    
H           113.79      19.06       14.67       
C           109.82      17.43       18.73       
C           110.56      18.71       16.87       
C           109.52      18.21       17.67       
C           123.59      10.91       23.16       
S           122.62      12.27       23.88       
C           123.48      10.9        21.77       
C           122.76      12.06       21.3        
C           122.2       12.84       22.28       
N           122.25      12.5        20.11       
C           121.34      13.56       20.37       
C           121.39      13.84       21.71       
C           122.28      11.81       18.85       
H           122.8       10.83       19.04       
H           121.29      11.53       18.58       
H           122.8252    12.426      18.13487    
H           120.13      14.22       18.62       
H           123.88      10.15       21.09       
C           120.45      14.37       19.63       
S           120.37      15.14       22.08       
C           119.83      15.24       20.38       
C           126.53      2.11        29.36       
C           125.7       3.09        29.8        
C           126.89      2.18        27.98       
C           126.62      3.32        27.22       
C           125.95      4.44        27.76       
C           125.36      4.26        29.03       
N           126.88      3.55        25.87       
C           126.53      4.83        25.48       
C           125.9       5.5         26.7        
O           126.56      5.22        24.32       
C           127.02      2.54        24.83       
C           125.42      6.78        26.68       
C           125.05      7.72        25.65       
C           124.62      8.97        26.24       
N           124.79      8.84        27.63       
C           125.22      7.56        27.92       
C           125.02      7.64        24.26       
O           125.44      7.3         29.09       
C           124.62      9.95        28.69       
H           124.54      4.93        29.41       
H           127.49      1.38        27.6        
H           125.28      3.02        30.83       
H           123.96      10.99       25.95       
H           125.31      6.8         23.7        
H           124.58      8.61        22.44       
H           126.28      2.51        24.02       
H           126.81      1.53        25.25       
H           128.03913   2.6957      24.47613    
H           125.21      10.82       28.4        
H           123.58087   10.22383    28.87255    
H           125.07      9.59        29.67       
C           124.54      8.67        23.52       
C           124.19      10.05       25.48       
C           124.17      9.9         24.06       
C           127.75      -4.78       32.82       
S           127.91      -4.34       31.19       
C           127.61      -3.74       33.62       
C           127.51      -2.52       32.95       
C           127.55      -2.68       31.55       
N           127.31      -1.19       33.21       
C           127.18      -0.58       31.94       
C           127.36      -1.45       30.91       
C           127.14      -0.6        34.53       
H           126.94      0.46        34.41       
H           128.08      -0.73       35.12       
H           126.25443   -0.99521    35.02767    
H           126.67      1.63        32.12       
H           127.5       -3.77       34.68       
C           126.85      0.74        31.45       
S           127.3       -0.65       29.33       
C           126.94      0.91        30.13       
C           123.81      -14.9       34.76       
C           123.83      -13.94      35.74       
C           124.35      -14.69      33.51       
C           125.09      -13.56      33.26       
C           125.28      -12.54      34.25       
C           124.59      -12.77      35.45       
N           125.71      -13.17      32.07       
C           126.26      -11.96      32.23       
C           126.06      -11.46      33.68       
O           126.83      -11.44      31.25       
C           125.84      -13.89      30.9        
C           126.56      -10.25      34.21       
C           126.96      -8.9        33.63       
C           127.56      -8.08       34.57       
N           127.67      -8.86       35.72       
C           126.87      -10.06      35.69       
C           126.72      -8.36       32.35       
O           126.95      -10.96      36.46       
C           128.44      -8.52       36.89       
H           124.64      -12.01      36.18       
H           124.23      -15.5       32.73       
H           123.14      -14.07      36.54       
H           128.35      -6.23       35.13       
H           126.16      -9.01       31.64       
H           126.64      -6.44       31.21       
H           125.63      -13.36      30.0        
H           125.23      -14.8       30.86       
H           126.83361   -14.32007   30.77395    
H           128.33      -7.52       37.3        
H           129.51018   -8.70642    36.80024    
H           128.03      -9.14       37.69       
C           126.91      -6.95       32.16       
C           127.84      -6.78       34.35       
C           127.49      -6.15       33.15       
C           119.48      -21.32      34.88       
S           120.61      -20.65      33.64       
C           119.6       -20.57      36.08       
C           120.57      -19.55      35.99       
C           121.1       -19.43      34.73       
N           120.96      -18.48      36.81       
C           121.7       -17.69      35.98       
C           121.87      -18.31      34.74       
C           120.83      -18.36      38.21       
H           121.36      -17.49      38.61       
H           121.21      -19.22      38.71       
H           119.78328   -18.36      38.51411    
H           122.4       -15.9       37.07       
H           118.94      -20.86      36.94       
C           122.43      -16.5       36.16       
S           122.92      -17.37      33.73       
C           123.15      -16.17      35.03       
C           111.91      -29.31      32.37       
C           112.74      -28.79      31.39       
C           112.14      -28.89      33.66       
C           113.16      -27.93      33.99       
C           114.14      -27.46      33.05       
C           113.81      -27.92      31.7        
N           113.38      -27.38      35.31       
C           114.62      -26.77      35.23       
C           115.02      -26.56      33.75       
O           114.93      -26.23      36.27       
C           112.88      -28.02      36.51       
C           116.12      -25.72      33.33       
C           116.82      -24.6       33.98       
C           117.86      -24.19      33.1        
N           117.75      -24.89      31.9        
C           116.73      -25.89      31.95       
C           116.75      -23.87      35.24       
O           116.65      -26.84      31.1        
C           118.63      -24.82      30.72       
H           114.3       -27.5       30.93       
H           111.5       -29.38      34.44       
H           112.56      -28.99      30.35       
H           119.39      -22.74      32.69       
H           116.22      -24.27      36.09       
H           117.5       -22.29      36.44       
H           112.83      -27.23      37.29       
H           111.91      -28.46      36.28       
H           113.54049   -28.79413   36.90061    
H           118.71      -25.8       30.27       
H           118.45963   -23.93111   30.11259    
H           119.63      -24.78      31.18       
C           117.6       -22.83      35.49       
C           118.66      -23.13      33.42       
C           118.52      -22.39      34.6        
C           104.62      -31.79      31.49       
S           105.73      -32.1       32.78       
C           105.23      -31.26      30.33       
C           106.58      -30.92      30.65       
C           106.95      -31.17      31.98       
N           107.67      -30.47      29.88       
C           108.68      -30.37      30.8        
C           108.25      -30.73      32.07       
C           107.69      -30.36      28.46       
H           108.64      -29.89      28.24       
H           106.84      -29.87      28.04       
H           107.70429   -31.34601   27.99558    
H           110.6       -29.63      29.93       
H           104.75      -30.99      29.43       
C           110.04      -29.98      30.78       
S           109.53      -30.61      33.2        
C           110.68      -29.93      32.03       
C           93.89       -35.3       31.74       
C           94.33       -34.22      31.01       
C           94.89       -35.89      32.58       
C           96.19       -35.42      32.64       
C           96.64       -34.37      31.85       
C           95.69       -33.82      31.06       
N           97.22       -35.88      33.48       
C           98.41       -35.25      33.17       
C           98.13       -34.19      32.01       
O           99.46       -35.62      33.63       
C           97.15       -36.81      34.61       
C           99.1        -33.42      31.44       
C           100.56      -33.17      31.65       
C           101.04      -32.26      30.74       
N           100.08      -32.09      29.76       
C           98.93       -32.74      30.06       
C           101.45      -33.53      32.75       
O           98.03       -32.72      29.32       
C           100.12      -30.89      28.99       
H           95.96       -32.97      30.4        
H           94.53       -36.6       33.32       
H           93.7        -33.7       30.34       
H           102.62      -31.33      29.8        
H           101.22      -34.3       33.38       
H           103.45      -33.44      33.41       
H           96.16       -37.2       34.63       
H           97.91       -37.58      34.63       
H           97.21328    -36.19831   35.50996    
H           100.73      -30.15      29.53       
H           100.58052   -31.06989   28.01858    
H           99.09       -30.47      28.96       
C           102.79      -33.08      32.69       
C           102.31      -31.87      30.69       
C           103.25      -32.17      31.66       
C           86.69       -38.38      31.49       
S           88.04       -38.79      32.54       
C           87.05       -37.44      30.61       
C           88.39       -37.02      30.76       
C           89.08       -37.63      31.81       
N           89.18       -36.14      30.06       
C           90.41       -36.1       30.78       
C           90.32       -36.98      31.89       
C           88.85       -35.34      28.88       
H           89.78       -34.99      28.54       
H           88.26       -34.48      29.13       
H           88.32717    -35.91162   28.11319    
H           91.74       -34.7       29.86       
H           86.41       -37.03      29.84       
C           91.59       -35.35      30.65       
S           91.86       -36.89      32.71       
C           92.53       -35.74      31.56       
H           18.16       18.34       1.74        
H           86.03       -39.22      31.13       
