512

C           29.32       25.27       14.95       
C           29.11       25.72       16.25       
C           28.23       24.76       14.22       
C           26.94       24.87       14.76       
C           26.71       25.52       15.98       
C           27.83       25.95       16.69       
N           25.75       24.45       14.17       
C           24.71       24.93       14.88       
C           25.24       25.64       16.11       
O           23.5        24.58       14.62       
C           25.59       23.69       13.01       
C           24.36       26.21       17.12       
C           22.94       26.58       17.13       
C           22.67       27.07       18.42       
N           23.76       27.06       19.26       
C           24.89       26.49       18.55       
C           21.89       26.66       16.22       
O           25.91       26.21       19.12       
C           24.0        27.98       20.35       
H           27.72       26.63       17.49       
H           28.34       24.35       13.29       
H           29.87       26.12       16.85       
H           21.18       27.86       19.76       
H           22.08       26.3        15.21       
H           19.86       26.91       15.79       
H           26.51       23.15       12.69       
H           24.82       22.93       13.33       
H           25.143      24.26157    12.19661    
H           23.4        27.85       21.28       
H           23.97932    29.01388    20.00537    
H           24.91       27.7        20.83       
C           20.64       26.99       16.51       
C           21.38       27.47       18.74       
C           20.36       27.32       17.79       
C           36.03       24.05       11.14       
S           34.5        23.03       11.19       
C           35.97       25.08       11.97       
C           34.66       25.23       12.61       
C           33.8        24.2        12.3        
N           34.06       26.13       13.47       
C           32.84       25.55       13.86       
C           32.6        24.44       13.05       
C           34.56       27.35       13.93       
H           33.89       27.98       14.53       
H           34.78       28.06       13.09       
H           35.45376    27.19014    14.53311    
H           31.65       26.67       15.43       
H           36.83       25.75       12.11       
C           31.73       25.86       14.77       
S           30.98       23.86       13.23       
C           30.62       25.16       14.41       
C           44.36       20.5        4.62        
C           43.11       19.88       4.81        
C           44.46       21.72       5.31        
C           43.41       22.28       6.09        
C           42.19       21.6        6.23        
C           42.07       20.31       5.61        
N           43.5        23.31       6.95        
C           42.3        23.44       7.61        
C           41.3        22.43       6.99        
O           42.06       24.36       8.36        
C           44.65       24.1        7.35        
C           39.98       22.32       7.35        
C           39.21       22.91       8.43        
C           37.84       22.45       8.27        
N           37.75       21.72       7.11        
C           38.95       21.6        6.52        
C           39.43       23.75       9.59        
O           39.14       21.08       5.42        
C           36.57       21.07       6.55        
H           41.16       19.77       5.76        
H           45.36       22.33       5.21        
H           43.08       18.79       4.51        
H           35.84       22.44       8.99        
H           40.4        24.01       9.93        
H           38.59       24.86       11.17       
H           45.46       23.92       6.67        
H           44.48       25.16       7.21        
H           44.98131    23.68227    8.3007      
H           36.72       20.89       5.47        
H           36.41672    20.07733    6.97334     
H           35.7        21.71       6.64        
C           38.37       24.11       10.39       
C           36.87       22.77       9.17        
C           37.06       23.67       10.22       
C           51.36       18.27       2.2         
S           50.68       19.82       2.53        
C           50.53       17.19       2.43        
C           49.21       17.67       2.82        
C           49.2        19.07       2.95        
N           47.95       17.17       3.08        
C           47.18       18.25       3.48        
C           47.87       19.48       3.32        
C           47.6        15.77       3.23        
H           46.55       15.61       3.44        
H           48.2        15.28       3.97        
H           47.7694     15.18417    2.32656     
H           45.11       17.77       4.13        
H           50.86       16.19       2.31        
C           45.8        18.55       3.84        
S           46.91       20.89       3.61        
C           45.55       19.86       3.99        
C           61.81       14.94       2.83        
C           60.77       14.2        2.3         
C           61.67       16.3        3.14        
C           60.4        16.89       3.04        
C           59.3        16.17       2.46        
C           59.49       14.8        2.26        
N           59.98       18.22       3.25        
C           58.56       18.33       3.11        
C           58.17       17.08       2.39        
O           57.92       19.39       3.3         
C           60.75       19.33       3.74        
C           56.85       16.88       1.93        
C           55.53       17.58       2.04        
C           54.63       16.97       1.14        
N           55.25       15.92       0.39        
C           56.57       15.82       0.86        
C           54.97       18.58       2.92        
O           57.41       15.08       0.24        
C           54.65       14.9        -0.43       
H           58.62       14.2        1.96        
H           62.42       16.91       3.62        
H           60.79       13.11       2.18        
H           52.64       16.86       0.38        
H           55.6        19.09       3.65        
H           53.21       19.54       3.64        
H           61.83       19.21       3.48        
H           60.48       20.26       3.22        
H           60.62398    19.35965    4.82228     
H           55.47       14.62       -1.11       
H           54.2399     14.12081    0.21249     
H           53.96       15.46       -1.02       
C           53.64       18.88       2.89        
C           53.3        17.32       1.11        
C           52.79       18.23       2.02        
C           68.91       12.19       4.3         
S           68.18       13.69       4.72        
C           68.06       11.43       3.48        
C           66.85       12.05       3.19        
C           66.74       13.32       3.85        
N           65.71       11.77       2.46        
C           64.81       12.83       2.67        
C           65.43       13.8        3.49        
C           65.38       10.49       1.75        
H           64.32       10.53       1.59        
H           65.61       9.66        2.45        
H           65.89521    10.35213    0.7994      
H           62.79       12.58       1.72        
H           68.33       10.41       3.1         
C           63.51       13.2        2.27        
S           64.37       15.14       3.73        
C           63.06       14.33       2.9         
C           79.75       12.52       6.97        
C           78.79       13.46       7.4         
C           79.3        11.29       6.39        
C           77.92       11.17       6.04        
C           77.0        12.15       6.39        
C           77.46       13.24       7.2         
N           77.32       10.1        5.36        
C           75.97       10.3        5.22        
C           75.67       11.57       6.01        
O           75.24       9.6         4.56        
C           77.97       8.91        4.88        
C           74.36       12.09       6.24        
C           73.04       11.88       5.56        
C           72.05       12.68       6.26        
N           72.64       13.19       7.44        
C           73.98       12.9        7.53        
C           72.61       11.23       4.46        
O           74.68       13.25       8.48        
C           72.04       14.17       8.32        
H           76.8        14.03       7.47        
H           79.96       10.42       6.34        
H           79.15       14.35       7.88        
H           69.98       13.27       6.5         
H           73.33       10.81       3.77        
H           71.02       10.96       3.09        
H           78.94       8.92        5.31        
H           77.44       8.01        5.23        
H           78.02961    8.93981     3.79204     
H           72.54       14.13       9.31        
H           72.15719    15.19024    7.95465     
H           71.01       13.89       8.37        
C           71.28       11.37       4.08        
C           70.67       12.75       5.87        
C           70.27       12.06       4.75        
C           87.32       12.28       8.12        
S           86.33       11.41       6.96        
C           86.68       13.34       8.74        
C           85.32       13.36       8.45        
C           84.95       12.37       7.48        
N           84.18       14.0        8.85        
C           83.1        13.41       8.13        
C           83.56       12.47       7.26        
C           84.03       14.79       10.02       
H           82.97       14.89       10.29       
H           84.58       15.78       9.96        
H           84.46686    14.33234    10.90758    
H           81.12       14.32       8.73        
H           87.23       13.91       9.5         
C           81.71       13.61       8.09        
S           82.27       11.71       6.37        
C           81.15       12.76       7.18        
C           98.42       11.01       8.66        
C           97.64       10.43       7.64        
C           97.8        11.89       9.56        
C           96.42       12.08       9.49        
C           95.63       11.53       8.48        
C           96.32       10.74       7.51        
N           95.67       12.9        10.28       
C           94.35       12.82       9.91        
C           94.22       11.99       8.66        
O           93.54       13.58       10.41       
C           96.17       14.08       10.96       
C           93.03       11.87       7.9         
C           91.59       12.12       8.19        
C           90.85       11.6        7.09        
N           91.67       11.09       6.1         
C           92.97       11.33       6.48        
C           90.85       12.59       9.35        
O           93.96       11.04       5.78        
C           91.2        10.67       4.79        
H           95.8        10.19       6.73        
H           98.35       12.33       10.43       
H           98.1        9.75        6.93        
H           88.8        11.11       6.33        
H           91.4        12.85       10.24       
H           88.93       12.83       10.24       
H           95.61       14.98       10.64       
H           97.21       14.26       10.59       
H           96.12595    14.00658    12.04663    
H           91.86       11.22       3.98        
H           91.19292    9.58002     4.79        
H           90.15       10.98       4.66        
C           89.48       12.5        9.37        
C           89.42       11.52       7.17        
C           88.78       12.07       8.25        
C           106.09      10.49       9.57        
S           104.94      11.19       10.76       
C           105.64      10.4        8.3         
C           104.22      10.53       8.31        
C           103.71      10.86       9.56        
N           103.21      10.45       7.34        
C           102.02      10.66       8.01        
C           102.29      10.94       9.38        
C           103.46      10.15       5.93        
H           102.74      10.79       5.37        
H           104.44      10.41       5.61        
H           103.38917   9.08053     5.73169     
H           100.36      10.0        6.8         
H           106.37      10.0        7.48        
C           100.65      10.46       7.72        
S           100.76      11.29       10.13       
C           99.88       10.91       8.67        
C           115.84      7.2         13.85       
C           115.84      7.66        12.52       
C           114.65      7.39        14.62       
C           113.58      8.1         14.0        
C           113.51      8.46        12.63       
C           114.73      8.2         11.92       
N           112.45      8.49        14.67       
C           111.56      9.0         13.85       
C           112.08      8.86        12.43       
O           110.58      9.62        14.3        
C           112.31      8.61        16.15       
C           111.32      9.08        11.29       
C           109.86      9.37        11.11       
C           109.64      9.73        9.74        
N           110.79      9.57        9.01        
C           111.9       9.15        9.86        
C           108.73      9.39        11.99       
O           112.97      8.81        9.36        
C           111.09      9.69        7.58        
H           114.82      8.51        10.88       
H           114.54      7.17        15.64       
H           116.72      7.49        11.85       
H           108.43      10.45       8.25        
H           108.75      9.1         12.97       
H           106.72      9.93        12.27       
H           111.96      9.64        16.45       
H           113.34      8.61        16.63       
H           111.70782   7.74663     16.43295    
H           112.11      10.1        7.39        
H           110.84223   8.82282     6.96787     
H           110.47      10.43       7.14        
C           107.53      9.88        11.57       
C           108.46      10.19       9.31        
C           107.39      10.22       10.18       
C           120.22      2.2         17.63       
S           119.06      3.33        18.14       
C           120.63      2.39        16.3        
C           119.88      3.45        15.73       
C           118.93      4.01        16.6        
N           119.77      4.07        14.54       
C           118.68      4.94        14.6        
C           118.19      4.96        15.88       
C           120.37      3.61        13.34       
H           120.47      4.36        12.57       
H           121.35      3.2         13.53       
H           119.71712   2.88376     12.85584    
H           118.19      5.86        12.7        
H           121.56      1.93        15.89       
C           117.92      5.8         13.73       
S           116.74      5.91        16.02       
C           116.95      6.43        14.36       
C           123.34      -5.43       25.23       
C           122.03      -5.0        25.12       
C           124.27      -4.99       24.29       
C           123.78      -4.22       23.19       
C           122.46      -3.7        23.15       
C           121.57      -4.1        24.18       
N           124.54      -3.72       22.12       
C           123.79      -2.86       21.35       
C           122.37      -2.68       22.04       
O           124.29      -2.24       20.42       
C           125.9       -3.93       21.81       
C           121.49      -1.7        21.59       
C           121.46      -0.8        20.4        
C           120.3       -0.02       20.58       
N           119.66      -0.29       21.83       
C           120.37      -1.27       22.51       
C           122.22      -0.57       19.21       
O           120.09      -1.64       23.6        
C           118.65      0.57        22.32       
H           120.51      -3.94       24.13       
H           125.26      -5.28       24.34       
H           121.38      -5.34       25.86       
H           119.06      1.55        19.86       
H           122.99      -1.17       18.91       
H           122.46      0.49        17.49       
H           126.11      -3.97       20.76       
H           126.18      -4.92       22.15       
H           126.53564   -3.1499     22.22894    
H           118.71      1.64        22.06       
H           117.66827   0.3139      21.92162    
H           118.57      0.45        23.35       
C           121.77      0.36        18.31       
C           119.99      0.96        19.68       
C           120.76      1.23        18.56       
C           124.48      -11.71      29.65       
S           125.05      -11.39      28.04       
C           123.97      -10.55      30.22       
C           124.01      -9.42       29.37       
C           124.48      -9.74       28.11       
N           123.44      -8.15       29.4        
C           123.68      -7.65       28.15       
C           124.31      -8.55       27.33       
C           122.85      -7.58       30.62       
H           122.61      -6.6        30.25       
H           123.51      -7.54       31.47       
H           121.93708   -8.1154     30.88083    
H           122.84      -5.62       27.94       
H           123.42      -10.58      31.17       
C           123.34      -6.46       27.48       
S           124.44      -7.93       25.68       
C           123.74      -6.4        26.19       
C           121.56      -22.32      31.74       
C           122.02      -21.53      32.77       
C           121.84      -21.91      30.42       
C           122.31      -20.61      30.23       
C           122.6       -19.66      31.26       
C           122.56      -20.23      32.54       
N           122.44      -20.0       29.01       
C           122.98      -18.67      29.13       
C           122.98      -18.37      30.63       
O           123.04      -17.92      28.15       
C           121.92      -20.52      27.79       
C           123.27      -17.08      31.16       
C           123.75      -15.85      30.51       
C           123.7       -14.8       31.52       
N           123.37      -15.41      32.79       
C           122.98      -16.71      32.54       
C           124.25      -15.42      29.3        
O           122.57      -17.44      33.45       
C           123.01      -14.74      34.02       
H           122.82      -19.65      33.42       
H           121.59      -22.66      29.64       
H           122.03      -21.88      33.79       
H           123.92      -12.73      32.15       
H           124.47      -16.1       28.54       
H           124.75      -13.83      28.1        
H           121.91      -21.59      27.73       
H           122.6       -20.24      26.98       
H           120.93702   -20.09872   27.57936    
H           122.37      -13.84      33.84       
H           123.88302   -14.29645   34.49875    
H           122.53      -15.51      34.6        
C           124.55      -14.08      29.12       
C           124.03      -13.48      31.35       
C           124.36      -13.07      30.09       
C           117.26      -28.93      31.65       
S           117.96      -27.94      30.42       
C           117.63      -28.46      32.89       
C           118.49      -27.26      32.83       
C           118.76      -26.9       31.52       
N           119.19      -26.46      33.73       
C           119.84      -25.47      32.95       
C           119.56      -25.73      31.59       
C           119.28      -26.64      35.16       
H           120.0       -25.93      35.59       
H           119.51      -27.7       35.44       
H           118.32497   -26.44612   35.64829    
H           120.97      -23.88      34.12       
H           117.28      -28.92      33.81       
C           120.66      -24.25      33.13       
S           120.12      -24.37      30.64       
C           120.84      -23.56      32.01       
C           108.82      -36.07      29.35       
C           109.35      -35.05      28.53       
C           109.47      -36.25      30.61       
C           110.62      -35.43      30.95       
C           110.98      -34.33      30.17       
C           110.32      -34.22      29.01       
N           111.43      -35.42      32.14       
C           112.33      -34.39      32.11       
C           112.19      -33.67      30.77       
O           113.0       -34.14      33.07       
C           111.17      -36.22      33.32       
C           113.06      -32.71      30.4        
C           114.1       -31.89      31.07       
C           114.65      -31.12      30.08       
N           114.06      -31.37      28.83       
C           113.11      -32.36      28.95       
C           114.61      -31.74      32.34       
O           112.65      -32.91      27.96       
C           114.13      -30.59      27.58       
H           110.58      -33.39      28.39       
H           109.15      -37.04      31.25       
H           108.95      -34.88      27.56       
H           116.0       -29.69      29.36       
H           114.25      -32.32      33.21       
H           115.94      -30.62      33.53       
H           111.3       -35.53      34.15       
H           110.16      -36.56      33.41       
H           111.97168   -36.95839   33.33406    
H           113.45      -30.93      26.78       
H           113.86145   -29.54408   27.72841    
H           115.19      -30.62      27.36       
C           115.58      -30.72      32.51       
C           115.68      -30.19      30.21       
C           116.22      -29.97      31.49       
C           102.17      -39.89      27.53       
S           103.23      -40.15      28.95       
C           102.79      -39.01      26.73       
C           104.04      -38.51      27.16       
C           104.45      -38.96      28.45       
N           104.87      -37.52      26.66       
C           105.89      -37.36      27.61       
C           105.61      -38.22      28.73       
C           104.84      -36.8       25.41       
H           105.75      -36.17      25.25       
H           104.0       -36.1       25.44       
H           104.63366   -37.42613   24.54196    
H           107.26      -35.78      27.06       
H           102.23      -38.84      25.82       
C           106.99      -36.56      27.79       
S           106.79      -37.92      29.97       
C           107.65      -36.81      28.9        
C           91.68       -43.37      27.32       
C           92.23       -42.36      26.4        
C           92.51       -43.85      28.35       
C           93.84       -43.61      28.21       
C           94.46       -42.89      27.18       
C           93.58       -42.17      26.32       
N           94.81       -44.15      29.05       
C           96.11       -43.65      28.71       
C           95.97       -42.77      27.44       
O           97.1        -43.8       29.39       
C           94.49       -45.17      30.09       
C           97.04       -42.16      26.77       
C           98.35       -41.7       27.23       
C           98.93       -40.97      26.17       
N           98.07       -40.97      25.03       
C           96.98       -41.8       25.25       
C           99.07       -41.79      28.38       
O           96.06       -41.75      24.47       
C           98.08       -40.02      23.95       
H           93.97       -41.36      25.74       
H           92.07       -44.52      29.07       
H           91.56       -41.81      25.73       
H           100.61      -39.99      25.26       
H           98.62       -42.32      29.2        
H           100.8       -40.97      29.45       
H           94.11       -44.7       31.03       
H           93.77       -45.88      29.77       
H           95.30491    -45.8361    30.37345    
H           98.61       -39.13      24.23       
H           98.59106    -40.43029   23.07904    
H           97.07       -39.81      23.77       
C           100.3       -41.12      28.51       
C           100.2       -40.43      26.18       
C           100.87      -40.48      27.4        
C           83.91       -44.77      26.79       
S           84.95       -43.52      26.16       
C           84.65       -45.59      27.65       
C           86.04       -45.26      27.71       
C           86.34       -44.19      26.83       
N           87.23       -45.66      28.4        
C           88.25       -44.88      27.87       
C           87.72       -44.0       26.96       
C           87.29       -46.53      29.54       
H           88.21       -46.53      29.99       
H           86.98       -47.53      29.24       
H           86.61597    -46.31234   30.3685     
H           90.13       -45.37      28.89       
H           84.18       -46.36      28.26       
C           89.66       -44.73      28.14       
S           89.05       -43.06      26.3        
C           90.28       -43.71      27.36       
H           19.26       27.49       18.06       
H           82.88       -44.9       26.7        
