512

C           28.21       19.95       2.17        
C           27.13       20.02       2.98        
C           28.05       20.62       0.94        
C           26.9        21.33       0.52        
C           25.86       21.47       1.39        
C           26.01       20.84       2.62        
N           26.66       21.94       -0.65       
C           25.35       22.35       -0.7        
C           24.76       22.31       0.71        
O           24.95       22.87       -1.74       
C           27.47       21.93       -1.84       
C           23.52       22.79       1.07        
C           22.33       23.39       0.34        
C           21.34       23.71       1.3         
N           21.82       23.46       2.56        
C           22.99       22.74       2.54        
C           21.99       23.7        -1.01       
O           23.5        22.4        3.57        
C           21.12       23.72       3.83        
H           25.27       20.94       3.33        
H           28.92       20.53       0.22        
H           27.11       19.61       3.97        
H           19.54       24.36       1.88        
H           22.62       23.39       -1.83       
H           20.53       24.56       -2.35       
H           27.25       22.75       -2.56       
H           28.52       21.88       -1.58       
H           27.36089    20.98437    -2.37101    
H           20.07       23.47       3.68        
H           21.16365    24.76749    4.12824     
H           21.44       22.95       4.58        
C           20.74       24.27       -1.3        
C           20.18       24.26       1.03        
C           19.87       24.65       -0.32       
C           35.17       17.29       4.45        
S           34.71       18.06       2.95        
C           34.1        17.0        5.17        
C           32.86       17.36       4.6         
C           33.04       18.12       3.42        
N           31.52       17.38       5.0         
C           30.81       18.17       4.06        
C           31.73       18.61       3.09        
C           30.91       16.6        6.0         
H           29.85       16.54       5.78        
H           30.94       17.0        7.01        
H           31.34692    15.60236    6.04369     
H           28.69       18.32       4.38        
H           34.18       16.48       6.19        
C           29.51       18.57       3.75        
S           30.96       19.54       1.86        
C           29.4        19.28       2.62        
C           46.23       15.79       6.23        
C           45.72       16.57       5.2         
C           45.28       15.33       7.2         
C           43.92       15.62       6.98        
C           43.43       16.34       5.86        
C           44.36       16.79       4.95        
N           42.95       15.25       7.81        
C           41.71       15.58       7.29        
C           41.97       16.43       5.99        
O           40.73       15.43       7.93        
C           43.12       15.0        9.29        
C           40.96       17.09       5.36        
C           39.45       16.95       5.44        
C           38.91       17.81       4.41        
N           39.91       18.43       3.74        
C           41.16       18.05       4.17        
C           38.43       16.19       6.16        
O           42.15       18.45       3.67        
C           39.87       19.62       2.89        
H           43.96       17.2        4.01        
H           45.6        14.75       8.06        
H           46.37       16.94       4.37        
H           37.23       18.64       3.42        
H           38.63       15.39       6.82        
H           36.31       15.71       6.36        
H           44.16       15.01       9.62        
H           42.57       15.75       9.69        
H           42.73799    14.00961    9.5376      
H           40.74       20.27       3.01        
H           39.74725    19.31674    1.85026     
H           39.05       20.23       3.24        
C           37.05       16.4        5.91        
C           37.54       17.95       4.18        
C           36.58       17.2        4.86        
C           53.81       14.1        6.76        
S           53.02       15.61       6.26        
C           52.84       13.16       7.11        
C           51.52       13.66       7.03        
C           51.46       14.96       6.59        
N           50.27       13.19       7.48        
C           49.35       14.14       7.01        
C           50.07       15.23       6.45        
C           49.97       12.4        8.7         
H           48.87       12.17       8.63        
H           50.19       12.91       9.64        
H           50.54784    11.47974    8.61439     
H           47.29       13.49       7.47        
H           53.05       12.09       7.37        
C           47.95       14.21       7.03        
S           48.9        16.35       5.83        
C           47.58       15.33       6.33        
C           64.97       12.85       6.02        
C           64.06       11.84       6.38        
C           64.42       14.1        5.71        
C           63.02       14.33       5.79        
C           62.14       13.27       6.03        
C           62.71       12.04       6.29        
N           62.31       15.55       5.66        
C           60.92       15.24       5.7         
C           60.78       13.77       5.98        
O           60.02       16.03       5.47        
C           62.93       16.82       5.45        
C           59.49       13.16       6.03        
C           58.16       13.75       6.26        
C           57.27       12.64       5.96        
N           57.93       11.49       5.56        
C           59.27       11.73       5.69        
C           57.63       14.9        6.76        
O           60.1        10.94       5.31        
C           57.4        10.3        4.98        
H           62.13       11.15       6.37        
H           65.03       15.0        5.5         
H           64.45       10.81       6.56        
H           55.19       11.97       5.87        
H           58.22       15.74       6.99        
H           55.84       15.89       7.45        
H           63.6        17.04       6.23        
H           63.49       16.8        4.59        
H           62.28512    17.687      5.30669     
H           58.2        9.77        4.52        
H           56.78231    9.66149     5.61157     
H           56.65       10.6        4.23        
C           56.22       14.99       6.93        
C           55.87       12.8        6.1         
C           55.31       13.99       6.56        
C           72.49       11.44       4.55        
S           71.82       12.95       5.22        
C           71.53       10.57       4.28        
C           70.21       11.03       4.55        
C           70.17       12.26       5.16        
N           68.99       10.46       4.42        
C           68.11       11.24       5.1         
C           68.77       12.45       5.37        
C           68.71       9.22        3.67        
H           67.58       9.19        3.61        
H           69.11       8.37        4.25        
H           69.16941    9.21304     2.68157     
H           66.01       10.62       5.03        
H           71.72       9.59        3.87        
C           66.76       11.26       5.43        
S           67.68       13.68       5.93        
C           66.38       12.52       5.89        
C           83.67       9.65        4.18        
C           82.99       10.89       4.53        
C           82.82       8.78        3.55        
C           81.4        9.03        3.48        
C           80.75       10.16       4.09        
C           81.62       11.18       4.43        
N           80.4        8.21        2.91        
C           79.14       8.71        3.2         
C           79.32       9.99        4.07        
O           78.17       8.04        2.93        
C           80.64       7.21        1.83        
C           78.26       10.74       4.55        
C           76.81       10.71       4.32        
C           76.27       11.68       5.2         
N           77.26       12.3        5.99        
C           78.5        11.82       5.59        
C           75.9        10.02       3.5         
O           79.44       12.09       6.29        
C           77.16       13.35       7.0         
H           81.31       12.09       4.98        
H           83.08       7.82        3.14        
H           83.57       11.7        4.94        
H           74.59       12.55       6.1         
H           76.25       9.28        2.8         
H           73.83       9.73        2.94        
H           81.66       6.83        1.74        
H           80.13       6.29        2.0         
H           80.32654    7.58046     0.85399     
H           78.02       13.36       7.65        
H           77.05704    14.34525    6.56758     
H           76.35       13.05       7.67        
C           74.53       10.26       3.59        
C           74.94       11.94       5.28        
C           73.98       11.25       4.46        
C           91.05       7.58        5.71        
S           89.86       6.7         4.81        
C           90.66       8.87        5.9         
C           89.31       9.05        5.64        
C           88.74       8.04        4.95        
N           88.43       10.08       5.88        
C           87.25       9.82        5.16        
C           87.34       8.47        4.66        
C           88.84       11.31       6.44        
H           88.12       12.06       6.19        
H           89.88       11.63       6.22        
H           88.8882     11.17917    7.52105     
H           85.58       11.27       5.4         
H           91.2        9.64        6.43        
C           85.94       10.42       4.97        
S           85.87       8.09        3.83        
C           85.12       9.54        4.33        
C           101.54      3.63        7.18        
C           100.69      3.28        6.19        
C           100.99      4.35        8.2         
C           99.67       4.87        8.11        
C           98.82       4.56        7.03        
C           99.35       3.72        6.07        
N           98.98       5.7         8.96        
C           97.69       5.99        8.49        
C           97.43       5.09        7.26        
O           96.98       6.72        9.17        
C           99.49       6.03        10.28       
C           96.2        5.01        6.56        
C           94.92       5.75        6.66        
C           94.03       5.21        5.67        
N           94.63       4.17        5.01        
C           95.91       3.92        5.49        
C           94.36       6.8         7.45        
O           96.65       3.03        5.12        
C           94.11       3.51        3.79        
H           98.82       3.38        5.23        
H           101.47      4.51        9.11        
H           101.01      2.64        5.4         
H           92.22       5.34        4.57        
H           94.87       7.24        8.26        
H           92.7        8.06        7.84        
H           98.99       6.87        10.7        
H           100.55      6.2         10.23       
H           99.29385    5.18934     10.94552    
H           94.92       3.21        3.2         
H           93.509      2.62996     4.01895     
H           93.67       4.26        3.14        
C           93.13       7.33        7.15        
C           92.78       5.76        5.38        
C           92.28       6.89        6.12        
C           108.46      0.28        9.06        
S           107.41      1.26        9.98        
C           107.89      -0.05       7.89        
C           106.58      0.48        7.67        
C           106.2       1.24        8.76        
N           105.63      0.52        6.64        
C           104.61      1.35        7.06        
C           104.94      1.82        8.4         
C           105.46      -0.38       5.61        
H           105.35      0.21        4.74        
H           106.33      -1.05       5.46        
H           104.5881    -1.0194     5.74805     
H           103.15      1.89        5.45        
H           108.51      -0.52       7.06        
C           103.46      1.97        6.5         
S           103.74      3.0         8.97        
C           102.85      2.87        7.41        
C           118.5       -2.57       13.09       
C           117.66      -3.47       12.42       
C           118.12      -1.23       13.15       
C           116.9       -0.9        12.54       
C           116.11      -1.72       11.83       
C           116.55      -3.04       11.7        
N           116.22      0.34        12.79       
C           115.04      0.39        12.04       
C           114.88      -0.95       11.42       
O           114.34      1.34        11.9        
C           116.68      1.5         13.61       
C           113.78      -1.31       10.57       
C           112.42      -0.69       10.45       
C           111.81      -1.36       9.37        
N           112.61      -2.41       8.9         
C           113.83      -2.4        9.5         
C           111.66      0.27        11.07       
O           114.74      -3.2        9.18        
C           112.21      -3.3        7.83        
H           115.87      -3.76       11.18       
H           118.65      -0.47       13.75       
H           117.93      -4.54       12.31       
H           110.25      -1.37       7.92        
H           112.1       0.79        11.93       
H           109.87      1.35        11.22       
H           116.51      2.48        13.2        
H           117.72      1.36        13.79       
H           116.10757   1.48551     14.53748    
H           113.01      -3.84       7.37        
H           111.39417   -3.98353    8.06519     
H           111.97      -2.61       7.02        
C           110.34      0.59        10.65       
C           110.57      -1.0        8.84        
C           109.75      -0.05       9.52        
C           124.36      -6.09       16.73       
S           123.15      -6.71       15.54       
C           124.47      -4.75       16.65       
C           123.44      -4.13       15.83       
C           122.56      -5.11       15.29       
N           122.95      -2.88       15.48       
C           121.74      -3.1        14.74       
C           121.47      -4.46       14.74       
C           123.61      -1.57       15.66       
H           122.89      -0.8        15.41       
H           123.84      -1.46       16.74       
H           124.5142    -1.53383    15.05238    
H           120.75      -1.19       14.06       
H           125.12      -4.16       17.3        
C           120.76      -2.32       14.17       
S           119.96      -4.7        13.91       
C           119.69      -3.0        13.79       
C           125.95      -14.09      24.15       
C           125.89      -12.71      24.52       
C           126.08      -14.37      22.72       
C           126.13      -13.35      21.78       
C           126.07      -11.99      22.14       
C           125.94      -11.74      23.52       
N           126.19      -13.46      20.41       
C           126.13      -12.29      19.79       
C           126.11      -11.21      20.91       
O           126.28      -12.23      18.58       
C           125.92      -14.72      19.77       
C           126.21      -9.83       20.66       
C           125.91      -9.03       19.49       
C           125.9       -7.66       19.84       
N           126.26      -7.49       21.2        
C           126.53      -8.7        21.73       
C           125.53      -9.32       18.15       
O           126.85      -8.87       22.91       
C           126.2       -6.26       22.02       
H           125.82      -10.79      23.87       
H           126.12      -15.4       22.42       
H           125.65      -12.46      25.55       
H           125.52      -5.66       19.3        
H           125.33      -10.36      17.89       
H           124.78      -8.63       16.26       
H           125.63      -14.54      18.73       
H           125.18      -15.27      20.31       
H           126.68286   -15.49698   19.81944    
H           126.46      -5.41       21.33       
H           125.23193   -6.05921    22.47894    
H           126.97      -6.29       22.8        
C           125.2       -8.37       17.27       
C           125.52      -6.69       18.98       
C           125.07      -7.01       17.67       
C           124.66      -20.74      27.99       
S           125.75      -20.4       26.65       
C           124.26      -19.64      28.61       
C           124.68      -18.47      27.88       
C           125.55      -18.7       26.75       
N           124.43      -17.12      27.97       
C           125.04      -16.46      26.86       
C           125.78      -17.44      26.14       
C           123.6       -16.57      29.04       
H           123.62      -15.47      29.04       
H           123.93      -16.91      30.07       
H           122.56911   -16.90872   28.93691    
H           124.95      -14.18      26.77       
H           123.54      -19.7       29.45       
C           125.26      -15.12      26.3        
S           126.52      -16.73      24.72       
C           125.88      -15.15      25.15       
C           120.37      -30.66      28.03       
C           119.81      -29.55      28.57       
C           121.69      -30.55      27.67       
C           122.42      -29.41      27.94       
C           121.85      -28.35      28.62       
C           120.5       -28.39      28.9        
N           123.73      -29.14      27.59       
C           124.08      -27.92      28.05       
C           122.94      -27.3       28.79       
O           125.2       -27.48      27.8        
C           124.76      -30.03      27.1        
C           122.98      -26.01      29.38       
C           123.65      -24.79      28.95       
C           123.08      -23.72      29.68       
N           122.2       -24.25      30.63       
C           121.93      -25.58      30.39       
C           124.45      -24.51      27.86       
O           121.04      -26.15      30.91       
C           121.24      -23.45      31.43       
H           119.96      -27.6       29.4        
H           122.18      -31.38      27.15       
H           118.77      -29.59      28.94       
H           123.22      -21.65      30.19       
H           124.85      -25.29      27.12       
H           125.29      -22.96      26.6        
H           124.44      -31.01      27.21       
H           125.65      -29.86      27.64       
H           124.94713   -29.91218   26.03267    
H           121.17      -22.53      30.97       
H           121.537     -23.34134   32.47311    
H           120.34      -24.01      31.33       
C           124.68      -23.21      27.5        
C           123.51      -22.4       29.47       
C           124.31      -22.1       28.31       
C           116.17      -37.17      27.02       
S           115.63      -35.49      27.05       
C           117.46      -37.18      26.93       
C           118.14      -35.96      27.09       
C           117.25      -34.85      27.19       
N           119.46      -35.6       27.18       
C           119.3       -34.24      27.43       
C           118.03      -33.74      27.37       
C           120.76      -36.33      27.04       
H           121.42      -35.7       27.67       
H           121.14      -36.24      25.97       
H           120.72431   -37.37936   27.33268    
H           121.26      -33.37      27.96       
H           117.99      -38.16      26.91       
C           120.2       -33.23      27.81       
S           117.89      -32.01      27.62       
C           119.62      -31.95      27.88       
C           108.94      -45.63      26.1        
C           108.92      -44.57      25.23       
C           109.98      -45.82      27.02       
C           110.93      -44.78      27.02       
C           110.84      -43.61      26.23       
C           109.93      -43.57      25.2        
N           112.07      -44.74      27.8        
C           112.72      -43.54      27.66       
C           111.91      -42.72      26.74       
O           113.82      -43.28      28.28       
C           112.8       -45.9       28.15       
C           112.25      -41.35      26.56       
C           113.36      -40.44      26.96       
C           113.14      -39.19      26.33       
N           111.95      -39.21      25.68       
C           111.32      -40.41      25.87       
C           114.56      -40.52      27.6        
O           110.3       -40.65      25.33       
C           111.22      -37.95      25.24       
H           109.86      -42.81      24.5        
H           110.0       -46.72      27.65       
H           108.07      -44.61      24.5        
H           113.68      -37.18      25.8        
H           114.98      -41.46      27.91       
H           116.47      -39.63      27.89       
H           113.44      -45.7       29.02       
H           112.17      -46.74      28.25       
H           113.54059   -46.21838   27.41634    
H           111.62      -37.01      25.65       
H           111.24081   -37.90838   24.15099    
H           110.2       -38.04      25.69       
C           115.47      -39.47      27.54       
C           114.0       -38.11      26.33       
C           115.24      -38.28      26.89       
C           104.31      -51.77      25.59       
S           105.24      -51.14      26.95       
C           104.43      -50.96      24.48       
C           105.3       -49.83      24.77       
C           105.84      -49.77      26.07       
N           105.77      -48.81      23.96       
C           106.62      -48.12      24.77       
C           106.62      -48.6       26.1        
C           105.89      -48.83      22.55       
H           106.42      -47.93      22.3        
H           104.95      -48.82      21.92       
H           106.42578   -49.71332   22.20246    
H           107.73      -46.47      23.69       
H           103.87      -51.14      23.56       
C           107.48      -47.0       24.62       
S           107.64      -47.69      27.15       
C           108.02      -46.65      25.83       
C           98.25       -61.53      26.37       
C           97.92       -60.46      25.49       
C           99.36       -61.28      27.23       
C           100.05      -60.03      27.19       
C           99.81       -59.02      26.27       
C           98.72       -59.31      25.4        
N           101.12      -59.65      28.01       
C           101.56      -58.37      27.66       
C           100.74      -57.85      26.53       
O           102.4       -57.75      28.25       
C           101.84      -60.38      29.09       
C           100.92      -56.61      25.91       
C           101.92      -55.47      26.0        
C           101.59      -54.44      25.08       
N           100.44      -54.76      24.5        
C           99.88       -55.95      24.97       
C           103.06      -55.21      26.78       
O           98.74       -56.31      24.64       
C           99.59       -53.74      23.85       
H           98.4        -58.63      24.58       
H           99.69       -62.0       27.97       
H           97.22       -60.61      24.68       
H           102.05      -52.54      24.22       
H           103.37      -56.0       27.37       
H           104.56      -53.98      27.45       
H           102.2       -59.73      29.81       
H           101.1       -61.09      29.53       
H           102.67282   -60.95713   28.6882     
H           99.54       -52.88      24.43       
H           99.89069    -53.46664   22.83858    
H           98.61       -54.19      23.79       
C           103.79      -54.02      26.65       
C           102.38      -53.28      24.92       
C           103.54      -52.98      25.74       
C           93.27       -67.61      25.7        
S           93.43       -66.03      24.8        
C           94.23       -67.65      26.65       
C           94.99       -66.44      26.78       
C           94.79       -65.5       25.77       
N           96.12       -66.03      27.55       
C           96.52       -64.76      27.01       
C           95.76       -64.48      25.9        
C           96.9        -66.78      28.42       
H           97.42       -66.05      29.05       
H           97.5        -67.43      27.83       
H           96.18295    -67.30212   29.05351    
H           98.3        -63.97      28.04       
H           94.25       -68.44      27.37       
C           97.59       -63.81      27.27       
S           96.24       -62.96      25.2        
C           97.47       -62.75      26.45       
H           18.99       25.25       -0.55       
H           92.61       -68.45      25.48       
