512

C           28.65       9.5         30.02       
C           28.32       8.92        28.8        
C           27.82       10.5        30.61       
C           26.71       10.99       29.82       
C           26.4        10.41       28.49       
C           27.23       9.36        28.06       
N           25.87       12.03       30.11       
C           25.02       12.26       29.05       
C           25.21       11.15       27.98       
O           24.24       13.17       29.06       
C           25.9        12.89       31.31       
C           24.34       10.96       26.85       
C           23.24       11.81       26.25       
C           22.66       11.04       25.19       
N           23.27       9.77        25.1        
C           24.36       9.75        25.95       
C           22.57       13.04       26.47       
O           25.04       8.77        26.01       
C           22.85       8.65        24.25       
H           27.08       8.83        27.12       
H           28.04       10.97       31.5        
H           28.92       8.05        28.44       
H           21.2        10.75       23.6        
H           22.93       13.65       27.32       
H           21.31       14.59       25.58       
H           24.87       12.96       31.77       
H           26.49       12.42       32.07       
H           26.26042    13.89352    31.08385    
H           22.61       9.02        23.2        
H           22.00248    8.09473     24.65184    
H           23.72       8.03        24.13       
C           21.73       13.58       25.52       
C           21.59       11.43       24.36       
C           21.24       12.75       24.47       
C           35.71       9.84        33.21       
S           34.3        10.93       33.28       
C           35.47       8.72        32.43       
C           34.11       8.69        32.0        
C           33.31       9.71        32.54       
N           33.35       7.9         31.19       
C           32.05       8.42        31.19       
C           32.1        9.57        31.95       
C           33.81       6.88        30.26       
H           32.98       6.56        29.5        
H           34.18       5.91        30.66       
H           34.68523    7.20909     29.69985    
H           30.75       7.54        29.54       
H           36.13       7.93        32.13       
C           30.88       8.24        30.35       
S           30.59       10.39       31.78       
C           29.98       9.19        30.56       
C           44.99       12.7        38.83       
C           44.65       11.44       38.43       
C           44.09       13.65       38.47       
C           42.98       13.35       37.68       
C           42.64       12.07       37.25       
C           43.5        11.11       37.69       
N           41.92       14.2        37.31       
C           41.06       13.57       36.35       
C           41.44       12.08       36.37       
O           40.16       14.26       35.88       
C           41.41       15.25       38.14       
C           40.76       11.17       35.61       
C           39.36       11.14       35.03       
C           39.31       9.9         34.33       
N           40.41       9.14        34.51       
C           41.33       9.8         35.23       
C           38.25       11.91       35.03       
O           42.43       9.31        35.51       
C           40.6        7.82        33.92       
H           43.28       10.12       37.44       
H           44.19       14.73       38.66       
H           45.29       10.6        38.61       
H           38.04       8.54        33.28       
H           38.23       12.78       35.61       
H           36.18       12.16       34.63       
H           42.24       15.69       38.65       
H           41.07       16.18       37.67       
H           40.61412    14.873      38.78229    
H           39.72       7.23        33.79       
H           40.96604    7.91669     32.89786    
H           41.29       7.33        34.6        
C           37.07       11.55       34.44       
C           38.07       9.53        33.69       
C           36.98       10.34       33.69       
C           52.02       15.21       41.18       
S           50.51       16.06       41.37       
C           51.86       13.84       40.87       
C           50.49       13.57       40.58       
C           49.64       14.64       40.8        
N           49.81       12.52       40.0        
C           48.51       12.89       39.83       
C           48.35       14.19       40.35       
C           50.46       11.28       39.69       
H           49.66       10.58       39.5        
H           50.93       10.89       40.62       
H           51.07912    11.30847    38.79335    
H           47.38       11.31       38.69       
H           52.73       13.21       40.71       
C           47.38       12.28       39.2        
S           46.73       14.58       40.11       
C           46.27       13.0        39.45       
C           62.15       18.41       44.51       
C           61.9        17.34       43.67       
C           61.1        19.24       44.84       
C           59.8        18.94       44.35       
C           59.55       17.93       43.45       
C           60.63       17.06       43.2        
N           58.67       19.71       44.55       
C           57.58       19.16       43.91       
C           58.07       17.99       43.06       
O           56.51       19.73       43.97       
C           58.67       21.0        45.24       
C           57.31       17.21       42.21       
C           55.85       16.86       42.12       
C           55.64       15.99       41.05       
N           56.88       15.72       40.37       
C           57.96       16.36       41.09       
C           54.73       17.17       42.92       
O           59.17       16.23       40.77       
C           57.12       15.0        39.16       
H           60.44       16.2        42.55       
H           61.31       20.1        45.47       
H           62.64       16.56       43.49       
H           54.33       14.78       39.82       
H           54.86       17.84       43.79       
H           52.59       17.0        43.17       
H           59.66       21.43       45.33       
H           58.11       21.77       44.7        
H           58.32713    20.88804    46.2686     
H           56.36       14.17       39.0        
H           56.99745    15.67043    38.30935    
H           58.14       14.54       39.25       
C           53.41       16.74       42.53       
C           54.38       15.44       40.71       
C           53.29       15.85       41.47       
C           68.92       19.34       48.1        
S           67.33       19.63       48.68       
C           69.01       18.74       46.83       
C           67.74       18.57       46.33       
C           66.72       19.0        47.17       
N           67.19       18.14       45.16       
C           65.82       18.19       45.29       
C           65.5        18.85       46.51       
C           67.86       17.89       43.92       
H           67.07       17.64       43.28       
H           68.36       16.99       43.93       
H           68.3994     18.79137    43.62901    
H           64.6        17.49       43.53       
H           69.92       18.43       46.28       
C           64.62       18.01       44.49       
S           63.78       19.2        46.7        
C           63.47       18.43       45.16       
C           77.2        23.66       54.38       
C           75.91       23.7        54.88       
C           77.39       23.21       53.08       
C           76.35       22.68       52.36       
C           75.07       22.61       52.83       
C           74.85       23.23       54.08       
N           76.52       22.22       51.07       
C           75.3        21.85       50.57       
C           74.28       21.96       51.72       
O           75.09       21.5        49.41       
C           77.67       22.27       50.2        
C           72.98       21.48       51.63       
C           72.2        20.75       50.56       
C           70.88       20.43       51.07       
N           70.88       20.78       52.42       
C           72.03       21.41       52.84       
C           72.39       20.47       49.17       
O           72.24       21.62       54.0        
C           69.8        20.42       53.38       
H           73.88       23.31       54.5        
H           78.4        23.33       52.67       
H           75.72       24.19       55.82       
H           68.87       19.57       50.81       
H           73.24       20.85       48.68       
H           71.37       20.02       47.41       
H           78.62       22.01       50.74       
H           77.5        21.5        49.48       
H           77.69846    23.1948     49.62378    
H           68.83       20.66       52.98       
H           69.82914    19.38558    53.72238    
H           69.95       21.12       54.24       
C           71.26       20.04       48.47       
C           69.85       19.84       50.36       
C           70.05       19.67       48.99       
C           83.81       25.05       58.48       
S           83.62       24.49       56.78       
C           82.56       25.31       59.06       
C           81.48       25.05       58.14       
C           81.88       24.69       56.83       
N           80.06       25.08       58.2        
C           79.64       24.75       56.96       
C           80.71       24.47       56.1        
C           79.16       25.23       59.35       
H           78.14       24.83       59.1        
H           78.94       26.29       59.52       
H           79.48164    24.64265    60.21004    
H           77.37       24.66       56.97       
H           82.54       25.48       60.16       
C           78.31       24.6        56.4        
S           80.07       23.85       54.6        
C           78.39       23.99       55.18       
C           93.44       25.16       64.14       
C           93.48       24.98       62.78       
C           92.23       25.37       64.8        
C           91.1        25.31       64.09       
C           91.07       25.31       62.67       
C           92.35       25.19       61.99       
N           89.8        25.33       64.57       
C           88.86       25.29       63.54       
C           89.62       25.32       62.22       
O           87.68       25.33       63.73       
C           89.45       25.71       65.91       
C           89.04       25.36       61.0        
C           87.65       25.11       60.61       
C           87.5        25.57       59.26       
N           88.73       25.96       58.71       
C           89.69       25.88       59.71       
C           86.44       24.64       61.19       
O           90.86       26.18       59.58       
C           88.93       26.69       57.51       
H           92.41       25.1        60.94       
H           92.18       25.32       65.89       
H           94.42       24.73       62.27       
H           86.28       25.84       57.61       
H           86.56       24.21       62.14       
H           84.29       24.27       60.97       
H           90.06       25.06       66.57       
H           88.41       25.39       66.05       
H           89.55578    26.78897    66.02283    
H           88.52       26.13       56.7        
H           88.39845    27.64119    57.53798    
H           90.02       26.69       57.39       
C           85.21       24.6        60.49       
C           86.32       25.48       58.56       
C           85.12       25.09       59.22       
C           99.99       23.71       67.95       
S           99.52       23.34       66.3        
C           99.05       24.34       68.67       
C           97.93       24.72       67.87       
C           97.97       24.16       66.6        
N           96.7        25.37       68.0        
C           96.05       25.22       66.8        
C           96.77       24.45       65.89       
C           96.5        26.45       68.95       
H           97.19       27.18       68.72       
H           95.52       26.91       68.8        
H           96.69344    26.15625    69.98169    
H           94.16       26.34       66.72       
H           99.22       24.65       69.64       
C           94.84       25.66       66.21       
S           95.97       24.18       64.36       
C           94.58       25.11       64.95       
C           108.49      17.41       71.91       
C           108.26      17.45       70.57       
C           107.6       18.16       72.78       
C           106.58      18.91       72.29       
C           106.31      18.95       70.88       
C           107.27      18.21       70.06       
N           105.65      19.67       73.0        
C           104.84      20.37       72.17       
C           105.22      19.97       70.71       
O           104.12      21.23       72.54       
C           105.65      20.0        74.46       
C           104.57      20.56       69.62       
C           103.37      21.43       69.47       
C           103.24      21.79       68.06       
N           104.2       21.1        67.4        
C           105.11      20.43       68.18       
C           102.36      21.88       70.32       
O           106.11      19.9        67.75       
C           104.28      21.14       65.93       
H           107.21      18.33       68.98       
H           107.68      18.01       73.88       
H           109.03      17.03       69.92       
H           102.2       22.84       66.46       
H           102.33      21.69       71.36       
H           100.46      22.88       70.35       
H           105.58      21.1        74.51       
H           106.57      19.72       74.92       
H           104.83395   19.48199    74.96382    
H           103.31      21.08       65.48       
H           104.72767   22.07144    65.58342    
H           104.84      20.25       65.63       
C           101.3       22.63       69.71       
C           102.21      22.52       67.54       
C           101.18      23.01       68.42       
C           114.72      13.8        75.16       
S           113.42      14.68       75.9        
C           114.43      13.56       73.81       
C           113.32      14.3        73.4        
C           112.59      14.95       74.39       
N           112.67      14.36       72.21       
C           111.58      15.22       72.43       
C           111.47      15.66       73.77       
C           113.06      13.72       71.0        
H           113.79      12.99       71.19       
H           112.21      13.18       70.55       
H           113.51026   14.44042    70.3171     
H           110.51      15.81       70.67       
H           115.12      12.97       73.18       
C           110.57      15.87       71.68       
S           110.06      16.69       74.1        
C           109.62      16.59       72.43       
C           119.05      5.66        80.93       
C           118.08      6.55        81.42       
C           119.86      6.02        79.85       
C           119.59      7.2         79.19       
C           118.54      8.12        79.64       
C           117.75      7.7         80.78       
N           120.2       7.85        78.16       
C           119.57      9.08        77.78       
C           118.49      9.33        78.77       
O           120.06      9.84        76.9        
C           121.5       7.49        77.47       
C           117.7       10.48       78.72       
C           117.28      11.41       77.65       
C           116.25      12.27       78.18       
N           116.14      12.04       79.53       
C           116.9       11.0        79.9        
C           117.54      11.51       76.27       
O           117.08      10.74       81.07       
C           115.62      12.97       80.52       
H           116.89      8.28        81.13       
H           120.59      5.29        79.55       
H           117.33      6.21        82.16       
H           114.69      13.71       77.81       
H           118.29      10.84       75.86       
H           116.9       12.3        74.47       
H           121.62      7.93        76.49       
H           121.59      6.41        77.39       
H           122.26423   7.95863     78.09003    
H           115.09      12.49       81.35       
H           116.40099   13.53483    81.02904    
H           114.83      13.59       80.12       
C           116.72      12.34       75.5        
C           115.45      13.08       77.42       
C           115.65      13.09       76.04       
C           117.83      -1.37       83.83       
S           116.67      -0.18       83.24       
C           119.13      -1.03       83.7        
C           119.27      0.31        83.09       
C           117.99      0.87        82.74       
N           120.27      1.14        82.66       
C           119.66      2.27        82.18       
C           118.27      2.09        82.17       
C           121.75      0.97        82.78       
H           122.21      1.86        82.49       
H           122.13      0.19        82.12       
H           122.03178   0.91502     83.83151    
H           121.08      3.91        81.83       
H           119.96      -1.62       83.92       
C           120.07      3.56        81.75       
S           117.51      3.48        81.49       
C           119.03      4.3         81.4        
C           113.8       -11.6       85.75       
C           114.57      -10.99      86.69       
C           113.71      -11.08      84.5        
C           114.32      -9.9        84.21       
C           115.18      -9.19       85.13       
C           115.31      -9.81       86.43       
N           114.23      -9.14       83.09       
C           114.93      -7.97       83.27       
C           115.55      -7.91       84.62       
O           115.05      -7.18       82.32       
C           113.29      -9.39       81.95       
C           116.25      -6.8        85.07       
C           116.35      -5.34       84.59       
C           117.43      -4.8        85.34       
N           117.81      -5.72       86.31       
C           117.16      -6.94       86.26       
C           115.77      -4.49       83.61       
O           117.52      -7.92       86.96       
C           118.55      -5.33       87.5        
H           115.9       -9.41       87.26       
H           112.99      -11.45      83.8        
H           114.6       -11.4       87.71       
H           118.61      -3.02       85.76       
H           115.03      -4.9        83.0        
H           115.65      -2.6        82.76       
H           113.32      -8.6        81.26       
H           112.25      -9.45       82.31       
H           113.47629   -10.34216   81.45322    
H           117.97      -4.46       87.97       
H           119.55933   -5.06514    87.18503    
H           118.43      -6.18       88.23       
C           116.14      -3.15       83.56       
C           117.88      -3.47       85.17       
C           117.25      -2.61       84.25       
C           110.81      -18.87      86.02       
S           110.87      -17.64      84.74       
C           111.5       -18.41      87.16       
C           111.95      -17.08      86.96       
C           111.57      -16.46      85.78       
N           112.52      -16.09      87.78       
C           112.69      -14.94      87.03       
C           111.99      -15.09      85.82       
C           113.26      -16.21      89.01       
H           113.36      -15.28      89.48       
H           114.3       -16.49      88.9        
H           112.73196   -16.8631    89.70479    
H           113.98      -13.35      87.96       
H           111.62      -19.01      88.05       
C           113.3       -13.63      87.18       
S           112.08      -13.68      84.82       
C           113.08      -12.85      86.05       
C           103.16      -26.72      85.09       
C           103.63      -26.09      83.94       
C           103.98      -26.79      86.25       
C           105.19      -26.13      86.27       
C           105.62      -25.33      85.17       
C           104.79      -25.41      84.06       
N           106.05      -26.02      87.34       
C           107.08      -25.19      87.02       
C           106.9       -24.62      85.61       
O           108.03      -25.07      87.86       
C           105.69      -26.28      88.71       
C           107.7       -23.64      84.99       
C           108.63      -22.53      85.52       
C           109.0       -21.77      84.41       
N           108.48      -22.31      83.22       
C           107.74      -23.46      83.49       
C           109.08      -22.12      86.78       
O           107.23      -24.13      82.66       
C           108.68      -21.68      81.92       
H           105.16      -24.85      83.21       
H           103.61      -27.4       87.09       
H           103.11      -26.19      83.03       
H           109.85      -19.86      83.67       
H           108.97      -22.72      87.69       
H           110.03      -20.69      87.89       
H           104.82      -26.84      88.87       
H           106.52      -26.71      89.17       
H           105.33614   -25.3412    89.13607    
H           108.94      -22.38      81.11       
H           107.82577   -21.08054   81.60528    
H           109.54      -21.03      81.95       
C           109.75      -20.94      86.9        
C           109.68      -20.53      84.52       
C           110.1       -20.14      85.83       
C           95.77       -28.71      84.09       
S           97.02       -28.5       82.9        
C           96.23       -28.82      85.4        
C           97.65       -28.61      85.45       
C           98.19       -28.46      84.18       
N           98.63       -28.45      86.43       
C           99.8        -28.06      85.83       
C           99.55       -28.1       84.47       
C           98.37       -28.55      87.92       
H           99.19       -27.94      88.36       
H           98.49       -29.57      88.29       
H           97.42849    -28.14752   88.29373    
H           101.55      -27.77      87.24       
H           95.55       -28.9       86.19       
C           101.13      -27.77      86.23       
S           100.99      -27.55      83.61       
C           101.88      -27.45      85.09       
C           85.14       -27.35      81.19       
C           86.1        -27.26      80.19       
C           85.45       -27.81      82.47       
C           86.76       -28.1       82.75       
C           87.82       -28.02      81.77       
C           87.4        -27.62      80.49       
N           87.27       -28.56      83.98       
C           88.61       -28.89      83.88       
C           89.09       -28.41      82.49       
O           89.2        -29.38      84.78       
C           86.56       -28.3       85.22       
C           90.39       -28.45      82.09       
C           91.69       -28.51      82.82       
C           92.7        -28.6       81.89       
N           92.21       -28.52      80.6        
C           90.82       -28.39      80.64       
C           92.02       -28.38      84.13       
O           90.28       -28.4       79.53       
C           92.95       -27.98      79.51       
H           88.14       -27.54      79.71       
H           84.74       -27.84      83.24       
H           85.84       -26.92      79.17       
H           94.85       -28.76      81.42       
H           91.24       -28.31      84.86       
H           93.6        -28.2       85.57       
H           87.04       -27.47      85.69       
H           85.54       -27.96      84.99       
H           86.48195    -29.15857   85.88699    
H           93.52       -27.04      79.82       
H           93.6637     -28.65088   79.03182    
H           92.26       -27.63      78.78       
C           93.32       -28.45      84.53       
C           94.07       -28.66      82.23       
C           94.37       -28.71      83.61       
C           77.68       -26.5       78.96       
S           79.08       -26.96      78.06       
C           78.03       -26.53      80.31       
C           79.43       -26.56      80.57       
C           80.16       -26.78      79.39       
N           80.22       -26.49      81.68       
C           81.51       -26.59      81.18       
C           81.49       -26.86      79.82       
C           79.83       -26.51      83.04       
H           80.66       -26.19      83.65       
H           79.55       -27.43      83.4        
H           79.02684    -25.81537   83.28601    
H           83.03       -26.44      82.79       
H           77.35       -26.26      81.11       
C           82.86       -26.64      81.74       
S           83.08       -27.08      79.28       
C           83.79       -26.97      80.87       
H           20.52       13.25       23.81       
H           76.72       -26.28      78.49       
