512

C           24.55       24.22       8.59        
C           23.52       23.76       7.82        
C           24.4        25.55       9.15        
C           23.21       26.29       8.92        
C           22.06       25.68       8.19        
C           22.34       24.46       7.66        
N           22.77       27.49       9.45        
C           21.44       27.76       9.06        
C           20.98       26.68       8.05        
O           20.85       28.81       9.37        
C           23.19       28.02       10.78       
C           19.84       26.79       7.22        
C           18.68       27.68       7.27        
C           17.77       27.31       6.26        
N           18.32       26.28       5.49        
C           19.54       25.91       5.98        
C           18.17       28.62       8.16        
O           20.19       25.02       5.43        
C           17.7        25.54       4.38        
H           21.63       23.96       6.99        
H           25.25       25.97       9.67        
H           23.57       22.75       7.36        
H           15.9        27.5        5.25        
H           18.62       28.94       9.04        
H           16.52       29.94       8.6         
H           24.21       27.72       10.96       
H           23.14       29.21       10.85       
H           22.59036    27.72371    11.64066    
H           17.07       26.2        3.78        
H           16.99931    24.78211    4.73034     
H           18.47       25.13       3.63        
C           16.91       29.17       7.92        
C           16.56       27.88       6.05        
C           16.04       28.79       6.95        
C           31.85       21.69       8.71        
S           31.01       22.74       9.85        
C           31.15       21.4        7.54        
C           29.83       21.81       7.73        
C           29.59       22.45       8.95        
N           28.64       21.68       6.98        
C           27.65       22.33       7.76        
C           28.21       22.86       8.91        
C           28.5        21.36       5.6         
H           27.47       21.04       5.44        
H           29.12       20.55       5.31        
H           28.70831    22.24353    4.99661     
H           25.75       22.43       6.71        
H           31.55       20.85       6.7         
C           26.27       22.66       7.6         
S           27.04       23.69       9.85        
C           25.77       23.45       8.64        
C           43.1        20.4        7.58        
C           42.44       21.61       7.29        
C           42.27       19.41       8.08        
C           40.88       19.63       8.31        
C           40.29       20.91       8.27        
C           41.13       21.84       7.61        
N           39.93       18.69       8.69        
C           38.77       19.31       8.91        
C           38.87       20.79       8.59        
O           37.8        18.66       9.37        
C           40.21       17.3        8.86        
C           37.69       21.65       8.52        
C           36.24       21.36       8.56        
C           35.55       22.67       8.58        
N           36.47       23.7        8.48        
C           37.74       23.16       8.43        
C           35.39       20.24       8.62        
O           38.68       23.91       8.38        
C           36.31       25.1        8.19        
H           40.77       22.84       7.38        
H           42.63       18.44       8.11        
H           43.01       22.47       6.92        
H           33.66       23.78       8.5         
H           35.73       19.21       8.5         
H           33.42       19.46       8.58        
H           39.43       16.7        8.34        
H           41.11       16.96       8.29        
H           40.4005     16.95427    9.87601     
H           37.1        25.63       8.69        
H           36.29599    25.2962     7.1179      
H           35.36       25.33       8.63        
C           33.98       20.37       8.61        
C           34.13       22.84       8.64        
C           33.31       21.63       8.71        
C           50.45       19.23       5.3         
S           49.41       20.52       4.79        
C           49.91       18.48       6.23        
C           48.63       18.83       6.53        
C           48.15       19.97       5.85        
N           47.62       18.48       7.39        
C           46.5        19.24       7.18        
C           46.79       20.22       6.2         
C           47.77       17.67       8.55        
H           46.98       17.85       9.22        
H           48.7        17.88       9.04        
H           47.72816    16.61712    8.27109     
H           44.77       18.35       8.29        
H           50.44       17.72       6.81        
C           45.16       19.13       7.62        
S           45.44       21.16       6.14        
C           44.46       20.13       7.17        
C           60.32       16.6        0.74        
C           59.69       15.96       1.8         
C           59.78       17.81       0.25        
C           58.7        18.34       0.93        
C           57.88       17.61       1.87        
C           58.44       16.38       2.31        
N           57.79       19.38       0.45        
C           56.72       19.6        1.23        
C           56.6        18.41       2.17        
O           56.0        20.56       1.06        
C           58.07       20.19       -0.66       
C           55.68       18.17       3.19        
C           54.3        18.6        3.43        
C           53.87       17.95       4.62        
N           54.91       17.2        5.19        
C           55.97       17.2        4.32        
C           53.32       19.55       2.91        
O           56.99       16.59       4.68        
C           55.06       16.65       6.53        
H           57.85       15.66       2.77        
H           60.14       18.28       -0.64       
H           60.05       15.0        2.16        
H           52.38       17.58       6.08        
H           53.62       20.14       2.06        
H           51.5        20.63       3.2         
H           58.74       19.63       -1.34       
H           57.06       20.42       -1.17       
H           58.56963    21.11789    -0.38163    
H           55.87       15.92       6.53        
H           55.23282    17.31967    7.37248     
H           54.09       16.11       6.69        
C           52.11       19.82       3.54        
C           52.63       18.19       5.21        
C           51.75       19.08       4.68        
C           67.08       14.36       -2.61       
S           66.03       15.66       -3.12       
C           66.56       13.62       -1.54       
C           65.44       14.31       -1.02       
C           64.98       15.39       -1.71       
N           64.56       13.92       0.0         
C           63.49       14.81       -0.06       
C           63.77       15.82       -1.06       
C           64.64       12.9        1.05        
H           63.83       13.01       1.78        
H           65.54       12.91       1.71        
H           64.5841     11.8869     0.65175     
H           61.93       14.34       1.38        
H           66.99       12.73       -1.04       
C           62.28       15.05       0.64        
S           62.48       16.97       -1.12       
C           61.64       16.17       0.22        
C           77.86       13.74       -5.98       
C           77.01       14.63       -6.58       
C           77.19       12.83       -5.09       
C           75.85       12.89       -4.86       
C           75.04       13.95       -5.3        
C           75.63       14.88       -6.15       
N           75.17       11.9        -4.21       
C           73.8        12.19       -4.31       
C           73.62       13.64       -4.86       
O           73.02       11.36       -3.89       
C           75.79       10.7        -3.61       
C           72.4        14.33       -4.8        
C           71.1        14.12       -4.19       
C           70.31       15.27       -4.3        
N           71.01       16.26       -4.93       
C           72.28       15.82       -5.27       
C           70.38       13.02       -3.6        
O           73.09       16.56       -5.79       
C           70.49       17.52       -5.4        
H           75.14       15.68       -6.63       
H           77.8        12.07       -4.78       
H           77.41       15.29       -7.38       
H           68.45       16.3        -3.71       
H           70.74       12.08       -3.51       
H           68.59       12.16       -2.7        
H           76.82       10.72       -3.58       
H           75.41       10.72       -2.58       
H           75.57635    9.7172      -4.03018    
H           71.28       18.21       -5.32       
H           70.0575     17.49297    -6.40016    
H           69.72       17.89       -4.69       
C           69.11       13.1        -3.12       
C           68.97       15.36       -3.84       
C           68.35       14.27       -3.28       
C           85.05       12.06       -8.16       
S           83.8        11.16       -7.39       
C           84.64       13.33       -8.48       
C           83.29       13.56       -8.06       
C           82.81       12.47       -7.34       
N           82.31       14.48       -8.18       
C           81.24       14.09       -7.35       
C           81.52       12.84       -6.86       
C           82.24       15.64       -9.07       
H           81.25       16.16       -8.97       
H           82.39       15.32       -10.13      
H           83.05674    16.3431     -8.90665    
H           79.58       15.67       -7.08       
H           85.23       14.01       -9.09       
C           79.94       14.64       -7.02       
S           80.18       12.17       -6.02       
C           79.26       13.67       -6.32       
C           94.57       6.56        -6.46       
C           93.26       5.98        -6.43       
C           94.69       7.87        -6.89       
C           93.57       8.55        -7.26       
C           92.28       7.97        -7.33       
C           92.09       6.67        -6.85       
N           93.49       9.87        -7.59       
C           92.22       10.2        -7.93       
C           91.32       8.99        -7.86       
O           91.96       11.27       -8.28       
C           94.57       10.77       -7.36       
C           89.93       8.91        -8.06       
C           88.82       9.92        -8.09       
C           87.67       9.26        -8.46       
N           87.86       7.85        -8.56       
C           89.21       7.6         -8.43       
C           88.69       11.26       -7.83       
O           89.54       6.51        -8.55       
C           86.97       6.65        -8.37       
H           91.13       6.17        -6.82       
H           95.66       8.27        -6.98       
H           93.08       4.94        -6.06       
H           85.58       9.33        -8.77       
H           89.57       11.77       -7.42       
H           87.52       12.99       -7.43       
H           94.52       11.65       -8.05       
H           95.52       10.34       -7.71       
H           94.58406    11.15654    -6.34094    
H           87.37       5.75        -8.81       
H           86.67659    6.46836     -7.33607    
H           86.08       6.76        -8.96       
C           87.49       11.95       -7.83       
C           86.44       9.94        -8.59       
C           86.34       11.36       -8.33       
C           101.23      2.59        -4.69       
S           100.96      4.29        -4.64       
C           100.2       1.88        -5.06       
C           99.04       2.72        -5.27       
C           99.3        4.11        -5.16       
N           97.69       2.58        -5.66       
C           97.15       3.86        -5.82       
C           98.06       4.85        -5.44       
C           97.05       1.3         -5.69       
H           97.69       0.62        -5.13       
H           96.08       1.27        -5.21       
H           96.98536    0.94087     -6.71711    
H           95.13       3.73        -6.8        
H           100.2       0.85        -5.09       
C           95.87       4.35        -6.32       
S           97.22       6.42        -5.58       
C           95.69       5.71        -6.09       
C           110.52      -1.36       0.07        
C           109.69      -2.16       -0.66       
C           110.31      -0.01       0.13        
C           109.2       0.47        -0.57       
C           108.31      -0.3        -1.34       
C           108.68      -1.66       -1.39       
N           108.77      1.78        -0.58       
C           107.54      1.92        -1.27       
C           107.17      0.5         -1.82       
O           106.96      2.98        -1.45       
C           109.08      2.74        0.47        
C           106.0       0.24        -2.58       
C           104.85      1.09        -2.92       
C           104.11      0.39        -3.92       
N           104.67      -0.85       -4.16       
C           105.83      -1.06       -3.43       
C           104.3       2.29        -2.61       
O           106.33      -2.14       -3.61       
C           104.04      -1.83       -5.02       
H           108.11      -2.38       -1.84       
H           110.95      0.66        0.8         
H           109.64      -3.22       -0.41       
H           102.48      0.35        -5.29       
H           104.8       2.83        -1.85       
H           102.94      3.85        -2.88       
H           108.67      3.68        0.15        
H           110.18      2.85        0.7         
H           108.59555   2.45625     1.40429     
H           104.83      -2.49       -5.46       
H           103.24938   -2.4179     -4.55374    
H           103.69      -1.35       -5.96       
C           103.2       2.84        -3.22       
C           103.03      0.95        -4.54       
C           102.5       2.13        -4.14       
C           115.2       -5.15       4.87        
S           113.75      -5.66       3.95        
C           115.56      -3.84       4.65        
C           114.65      -3.29       3.74        
C           113.52      -4.08       3.4         
N           114.56      -2.12       3.05        
C           113.3       -2.11       2.41        
C           112.68      -3.36       2.59        
C           115.6       -1.11       2.89        
H           116.6       -1.62       2.9         
H           115.61      -0.5        2.01        
H           115.57055   -0.38109    3.69989     
H           112.93      -0.36       1.07        
H           116.48      -3.44       4.96        
C           112.61      -1.34       1.48        
S           111.14      -3.49       1.75        
C           111.44      -1.93       1.03        
C           119.81      -13.47      10.74       
C           119.78      -12.24      11.21       
C           119.44      -13.65      9.43        
C           118.97      -12.62      8.61        
C           118.86      -11.32      9.07        
C           119.25      -11.2       10.44       
N           118.47      -12.73      7.3         
C           118.17      -11.44      6.8         
C           118.37      -10.39      7.96        
O           117.82      -11.31      5.6         
C           118.01      -13.97      6.8         
C           118.08      -9.08       7.86        
C           117.44      -8.25       6.81        
C           117.3       -6.92       7.35        
N           117.83      -6.91       8.64        
C           118.39      -8.1        9.0         
C           116.98      -8.39       5.49        
O           119.06      -8.13       9.98        
C           117.03      -6.32       9.69        
H           119.06      -10.25      10.92       
H           119.5       -14.67      9.08        
H           120.24      -12.09      12.2        
H           116.39      -4.97       7.1         
H           117.14      -9.33       5.04        
H           115.85      -7.64       3.82        
H           117.18      -13.8       6.07        
H           117.48      -14.5       7.56        
H           118.83556   -14.51088   6.3374      
H           116.48      -7.09       10.25       
H           117.49168   -5.53869    10.29374    
H           116.28      -5.78       9.08        
C           116.24      -7.43       4.84        
C           116.6       -5.93       6.59        
C           115.96      -6.18       5.42        
C           121.35      -20.26      14.28       
S           121.45      -19.9       12.51       
C           121.1       -19.17      15.09       
C           121.14      -17.97      14.29       
C           121.03      -18.25      12.88       
N           120.91      -16.62      14.57       
C           120.67      -16.04      13.39       
C           120.76      -16.97      12.34       
C           120.86      -15.96      15.82       
H           120.59      -14.89      15.7        
H           121.9       -15.95      16.24       
H           120.1431    -16.42847   16.49431    
H           120.25      -13.91      13.56       
H           120.94      -19.21      16.16       
C           120.36      -14.72      12.9        
S           120.46      -16.17      10.8        
C           120.22      -14.6       11.52       
C           121.01      -31.4       16.12       
C           120.92      -30.51      17.18       
C           121.31      -30.91      14.88       
C           121.26      -29.51      14.64       
C           121.07      -28.6       15.75       
C           120.99      -29.12      17.01       
N           121.49      -28.87      13.47       
C           121.4       -27.5       13.7        
C           121.22      -27.26      15.17       
O           121.56      -26.73      12.76       
C           121.83      -29.46      12.19       
C           121.06      -25.96      15.66       
C           121.36      -24.58      15.14       
C           120.86      -23.62      16.05       
N           120.27      -24.32      17.12       
C           120.19      -25.69      16.87       
C           122.02      -24.01      13.99       
O           119.49      -26.41      17.57       
C           119.55      -23.61      18.16       
H           120.95      -28.5       17.87       
H           121.61      -31.61      14.14       
H           120.76      -30.86      18.21       
H           120.63      -21.61      16.66       
H           122.55      -24.62      13.26       
H           122.57      -22.25      12.92       
H           122.33      -30.5       12.29       
H           122.36      -28.81      11.6        
H           120.92897   -29.66904   11.61334    
H           118.82      -22.92      17.75       
H           120.24873   -23.22182   18.90108    
H           118.9       -24.27      18.7        
C           122.05      -22.63      13.75       
C           120.95      -22.21      15.88       
C           121.41      -21.71      14.63       
C           119.81      -39.09      16.42       
S           119.49      -37.88      15.13       
C           120.46      -38.46      17.47       
C           120.73      -37.1       17.21       
C           120.29      -36.58      15.99       
N           121.5       -36.12      17.87       
C           121.26      -34.98      17.18       
C           120.54      -35.21      16.0        
C           122.25      -36.24      19.04       
H           122.56      -35.26      19.33       
H           123.2       -36.82      18.84       
H           121.7198    -36.6995    19.87418    
H           122.22      -33.21      18.01       
H           120.72      -38.99      18.39       
C           121.5       -33.6       17.31       
S           120.09      -33.82      15.09       
C           120.86      -32.81      16.33       
C           114.94      -49.05      18.19       
C           114.64      -48.32      17.03       
C           116.02      -48.61      18.93       
C           116.74      -47.48      18.52       
C           116.41      -46.69      17.42       
C           115.29      -47.13      16.66       
N           117.82      -46.92      19.18       
C           118.18      -45.77      18.6        
C           117.31      -45.51      17.35       
O           119.21      -45.23      18.91       
C           118.29      -47.37      20.54       
C           117.46      -44.36      16.59       
C           118.24      -43.07      16.73       
C           117.97      -42.26      15.57       
N           117.28      -43.0       14.63       
C           116.77      -44.16      15.22       
C           119.2       -42.5       17.63       
O           116.21      -45.01      14.63       
C           116.67      -42.45      13.49       
H           114.87      -46.54      15.85       
H           116.25      -49.11      19.85       
H           113.71      -48.59      16.49       
H           118.13      -40.31      14.69       
H           119.42      -43.11      18.44       
H           120.65      -41.07      18.03       
H           118.31      -48.45      20.66       
H           119.28      -47.08      20.74       
H           117.66863   -46.98337   21.34778    
H           116.41      -41.35      13.63       
H           117.27508   -42.55314   12.58926    
H           115.71      -43.02      13.42       
C           119.83      -41.29      17.41       
C           118.37      -40.93      15.5        
C           119.34      -40.47      16.38       
C           109.06      -54.08      19.91       
S           109.69      -53.47      18.36       
C           109.65      -53.4       20.97       
C           110.63      -52.45      20.56       
C           110.81      -52.49      19.18       
N           111.54      -51.58      21.17       
C           112.39      -51.08      20.2        
C           111.97      -51.63      18.94       
C           111.76      -51.25      22.61       
H           111.89      -50.17      22.71       
H           112.61      -51.76      23.1        
H           110.90793   -51.52209   23.23294    
H           113.81      -49.42      20.89       
H           109.27      -53.6       22.01       
C           113.46      -50.07      20.06       
S           112.99      -50.92      17.69       
C           113.98      -50.0       18.81       
C           101.72      -62.71      20.15       
C           101.92      -61.96      18.98       
C           102.52      -62.35      21.31       
C           103.48      -61.32      21.25       
C           103.57      -60.49      20.09       
C           102.83      -60.96      18.96       
N           104.26      -60.88      22.34       
C           105.03      -59.81      21.9        
C           104.61      -59.46      20.42       
O           105.83      -59.24      22.7        
C           103.76      -60.95      23.74       
C           105.24      -58.43      19.76       
C           106.27      -57.38      20.1        
C           106.44      -56.58      18.95       
N           105.81      -57.21      17.91       
C           105.04      -58.25      18.27       
C           106.94      -56.93      21.21       
O           104.6       -59.02      17.44       
C           105.74      -56.69      16.55       
H           102.86      -60.4       18.07       
H           102.51      -63.0       22.21       
H           101.34      -62.12      18.04       
H           107.45      -54.96      17.95       
H           106.89      -57.49      22.12       
H           108.47      -55.57      21.93       
H           103.01      -61.65      23.87       
H           104.54      -61.31      24.45       
H           103.33654   -59.99357   24.04664    
H           105.95      -55.61      16.47       
H           106.3592    -57.1716    15.7932     
H           104.72      -56.83      16.24       
C           107.81      -55.82      21.18       
C           107.29      -55.47      18.89       
C           108.04      -55.14      19.99       
C           95.43       -67.46      20.66       
S           95.82       -66.04      19.67       
C           96.5        -67.79      21.44       
C           97.64       -66.89      21.3        
C           97.42       -65.87      20.29       
N           99.02       -66.74      21.71       
C           99.55       -65.67      21.08       
C           98.58       -65.12      20.18       
C           99.59       -67.27      22.92       
H           100.57      -66.87      23.22       
H           99.69       -68.35      22.86       
H           98.92578    -67.02372   23.74841    
H           101.6       -65.08      21.75       
H           96.59       -68.67      22.04       
C           100.75      -64.92      21.1        
S           99.2        -63.7       19.38       
C           100.71      -63.79      20.29       
H           15.3        29.51       6.6         
H           94.43       -67.85      20.78       
