512

C           27.12       27.52       2.09        
C           26.04       27.86       2.88        
C           27.35       28.36       1.0         
C           26.4        29.34       0.71        
C           25.3        29.78       1.57        
C           25.24       28.92       2.71        
N           26.42       30.17       -0.38       
C           25.49       31.18       -0.31       
C           24.7        31.01       1.03        
O           25.12       31.85       -1.21       
C           27.66       30.45       -1.15       
C           23.78       31.93       1.48        
C           23.42       33.26       1.03        
C           22.41       33.71       1.86        
N           22.09       32.79       2.85        
C           22.76       31.6        2.57        
C           23.84       34.14       0.02        
O           22.66       30.71       3.31        
C           20.91       32.86       3.72        
H           24.54       29.13       3.46        
H           28.18       28.16       0.28        
H           25.86       27.38       3.89        
H           21.05       35.39       2.34        
H           24.74       33.96       -0.55       
H           23.7        35.98       -0.93       
H           28.48       29.73       -1.02       
H           27.54       30.47       -2.21       
H           28.03744    31.42564    -0.84378    
H           20.05       33.28       3.19        
H           21.04551    33.36637    4.67568     
H           20.67       31.83       3.98        
C           23.27       35.37       -0.22       
C           21.86       35.05       1.73        
C           22.34       35.9        0.66        
C           32.51       22.0        3.31        
S           32.4        23.36       2.23        
C           31.34       21.98       4.11        
C           30.35       22.95       3.68        
C           30.75       23.77       2.61        
N           29.14       23.34       4.13        
C           28.74       24.49       3.41        
C           29.77       24.72       2.42        
C           28.29       22.59       5.0         
H           27.29       22.94       5.02        
H           28.63       22.48       6.01        
H           28.15867    21.56698    4.64747     
H           26.79       25.49       4.08        
H           31.21       21.36       4.92        
C           27.68       25.42       3.36        
S           29.47       26.13       1.5         
C           27.91       26.29       2.35        
C           41.3        14.73       3.27        
C           41.17       15.68       2.31        
C           40.27       14.62       4.2         
C           39.2        15.49       4.12        
C           39.01       16.52       3.15        
C           40.08       16.59       2.21        
N           38.07       15.42       4.91        
C           37.21       16.55       4.77        
C           37.81       17.36       3.57        
O           36.24       16.72       5.52        
C           37.79       14.29       5.72        
C           37.23       18.51       3.08        
C           35.89       19.2        3.3         
C           35.89       20.44       2.6         
N           37.1        20.59       1.93        
C           37.95       19.49       2.15        
C           34.68       18.98       4.08        
O           39.13       19.57       1.86        
C           37.51       21.73       1.08        
H           40.09       17.38       1.49        
H           40.38       13.95       5.06        
H           42.08       15.92       1.71        
H           35.06       22.25       1.94        
H           34.61       18.12       4.75        
H           32.72       19.73       4.73        
H           38.19       13.42       5.26        
H           38.29       14.42       6.68        
H           36.7401     13.99717    5.71286     
H           38.56       21.96       1.0         
H           37.29899    21.55537    0.02497     
H           37.11       22.67       1.45        
C           33.61       19.92       4.05        
C           34.91       21.42       2.6         
C           33.71       21.15       3.32        
C           48.52       11.83       4.21        
S           47.8        12.69       2.82        
C           47.55       11.35       5.04        
C           46.26       11.85       4.72        
C           46.27       12.67       3.59        
N           44.92       11.74       5.25        
C           44.18       12.65       4.47        
C           44.92       13.16       3.45        
C           44.46       10.84       6.32        
H           43.42       11.04       6.42        
H           45.02       11.05       7.27        
H           44.71526    9.81897     6.03638     
H           42.1        12.93       5.34        
H           47.75       10.63       5.84        
C           42.78       13.15       4.52        
S           44.03       14.32       2.56        
C           42.54       13.94       3.46        
C           59.36       9.5         2.33        
C           58.61       8.66        3.16        
C           58.82       10.62       1.66        
C           57.43       10.86       1.91        
C           56.61       10.05       2.77        
C           57.29       8.97        3.38        
N           56.61       11.85       1.37        
C           55.36       11.78       1.9         
C           55.26       10.72       2.97        
O           54.54       12.61       1.47        
C           56.99       13.0        0.65        
C           54.15       10.46       3.75        
C           52.81       11.12       3.83        
C           51.96       10.37       4.69        
N           52.66       9.26        5.13        
C           53.97       9.23        4.64        
C           52.13       12.18       3.28        
O           54.68       8.24        5.0         
C           52.06       8.25        6.06        
H           56.77       8.38        4.16        
H           59.4        11.16       0.94        
H           59.02       7.74        3.52        
H           49.93       9.75        5.2         
H           52.67       12.96       2.69        
H           50.44       13.47       3.08        
H           58.01       12.96       0.32        
H           56.27       13.23       -0.11       
H           57.12448    13.89892    1.25164     
H           52.77       7.45        5.98        
H           51.79619    8.59938     7.05822     
H           51.16       7.94        5.54        
C           50.79       12.54       3.49        
C           50.56       10.58       4.84        
C           49.92       11.61       4.17        
C           66.52       8.47        -0.51       
S           65.63       9.94        -0.32       
C           65.89       7.35        -0.1        
C           64.65       7.65        0.46        
C           64.32       9.01        0.48        
N           63.62       6.94        1.12        
C           62.55       7.84        1.37        
C           63.01       9.11        0.92        
C           63.4        5.49        1.13        
H           62.38       5.31        1.47        
H           64.14       4.98        1.74        
H           63.59506    5.09292     0.13382     
H           60.69       6.93        2.17        
H           66.29       6.34        -0.1        
C           61.27       7.78        1.91        
S           61.74       10.26       1.17        
C           60.69       9.06        1.93        
C           77.46       8.63        -2.44       
C           76.87       9.73        -1.91       
C           76.73       7.55        -2.83       
C           75.34       7.55        -2.64       
C           74.65       8.64        -2.01       
C           75.47       9.71        -1.64       
N           74.46       6.55        -3.02       
C           73.21       6.87        -2.51       
C           73.25       8.26        -1.85       
O           72.29       6.01        -2.62       
C           74.75       5.32        -3.84       
C           72.08       8.96        -1.49       
C           70.63       8.57        -1.31       
C           69.87       9.72        -1.24       
N           70.66       10.87       -1.32       
C           72.01       10.54       -1.35       
C           69.95       7.38        -1.24       
O           72.88       11.41       -1.4        
C           70.16       12.21       -1.6        
H           75.04       10.43       -0.93       
H           77.23       6.64        -3.11       
H           77.53       10.53       -1.65       
H           67.95       10.67       -0.89       
H           70.51       6.41        -1.37       
H           68.06       6.46        -1.17       
H           75.84       5.36        -4.1        
H           74.53       4.32        -3.3        
H           74.20307    5.33439     -4.78274    
H           70.98       12.92       -1.42       
H           69.86283    12.2666     -2.64718    
H           69.32       12.51       -0.98       
C           68.59       7.39        -1.07       
C           68.53       9.81        -1.05       
C           67.86       8.55        -0.93       
C           84.85       7.77        -4.73       
S           83.41       6.85        -5.25       
C           84.56       8.76        -3.88       
C           83.18       8.82        -3.48       
C           82.41       7.87        -4.14       
N           82.44       9.64        -2.62       
C           81.15       9.1         -2.74       
C           81.12       8.04        -3.64       
C           82.88       10.67       -1.71       
H           82.06       11.29       -1.46       
H           83.47       11.37       -2.28       
H           83.29933    10.32056    -0.76652    
H           79.76       10.32       -1.52       
H           85.28       9.52        -3.62       
C           79.9        9.42        -2.17       
S           79.55       7.42        -3.8        
C           78.89       8.61        -2.63       
C           94.96       4.56        -7.76       
C           93.78       3.92        -8.19       
C           94.75       5.84        -7.27       
C           93.47       6.31        -7.06       
C           92.27       5.61        -7.45       
C           92.5        4.37        -8.02       
N           93.08       7.49        -6.46       
C           91.66       7.6         -6.33       
C           91.09       6.41        -7.1        
O           91.12       8.68        -6.07       
C           93.92       8.68        -6.34       
C           89.72       6.27        -7.3        
C           88.64       6.89        -6.46       
C           87.43       6.43        -7.08       
N           87.65       5.49        -8.15       
C           89.02       5.27        -8.23       
C           88.55       7.52        -5.18       
O           89.47       4.43        -9.02       
C           86.62       4.98        -9.02       
H           91.7        3.67        -8.21       
H           95.6        6.4         -6.85       
H           93.83       2.96        -8.66       
H           85.29       6.41        -6.96       
H           89.46       7.85        -4.68       
H           87.24       8.26        -3.71       
H           93.4        9.44        -6.86       
H           94.89       8.66        -6.86       
H           94.14937    8.99539     -5.32215    
H           87.05       4.76        -10.0       
H           86.23164    4.09233     -8.52068    
H           85.89       5.75        -9.15       
C           87.31       7.79        -4.65       
C           86.2        6.76        -6.54       
C           86.15       7.48        -5.33       
C           102.36      2.37        -7.14       
S           101.51      3.88        -6.7        
C           101.5       1.45        -7.75       
C           100.13      1.93        -7.76       
C           99.98       3.22        -7.17       
N           98.89       1.49        -8.17       
C           98.05       2.53        -8.05       
C           98.64       3.58        -7.38       
C           98.49       0.14        -8.57       
H           98.72       -0.51       -7.73       
H           97.39       0.04        -8.87       
H           99.07854    -0.2339     -9.40781    
H           95.97       2.06        -8.91       
H           101.82      0.42        -8.1        
C           96.66       2.79        -8.36       
S           97.54       4.8         -7.03       
C           96.31       4.01        -7.94       
C           112.01      0.13        -2.06       
C           111.56      -0.75       -3.04       
C           111.21      1.19        -1.76       
C           110.12      1.45        -2.54       
C           109.66      0.62        -3.6        
C           110.5       -0.47       -3.91       
N           109.15      2.43        -2.26       
C           108.21      2.47        -3.26       
C           108.38      1.2         -4.13       
O           107.42      3.46        -3.43       
C           108.86      2.9         -0.88       
C           107.46      0.86        -5.07       
C           106.06      1.28        -5.31       
C           105.73      0.82        -6.62       
N           106.72      0.05        -7.17       
C           107.84      0.07        -6.32       
C           105.03      2.0         -4.64       
O           108.92      -0.3        -6.77       
C           106.56      -0.96       -8.23       
H           110.17      -1.15       -4.66       
H           111.39      1.8         -0.89       
H           112.1       -1.67       -3.18       
H           104.45      0.79        -8.33       
H           105.25      2.39        -3.65       
H           103.12      2.88        -4.74       
H           108.52      3.93        -1.07       
H           109.77      2.92        -0.25       
H           108.10166   2.30022     -0.37674    
H           107.5       -1.4        -8.55       
H           105.90305   -1.77235    -7.91919    
H           106.12      -0.45       -9.05       
C           103.85      2.28        -5.31       
C           104.57      1.17        -7.3        
C           103.62      1.98        -6.62       
C           117.22      -3.11       2.75        
S           116.73      -3.43       1.06        
C           116.66      -1.93       3.24        
C           115.81      -1.33       2.23        
C           115.81      -1.99       1.02        
N           114.85      -0.33       2.15        
C           114.31      -0.39       0.88        
C           114.97      -1.33       0.11        
C           114.51      0.67        3.15        
H           115.37      1.28        3.32        
H           113.77      1.33        2.84        
H           114.20276   0.22037     4.09421     
H           112.5       0.86        0.74        
H           116.65      -1.74       4.32        
C           113.24      0.26        0.21        
S           114.32      -1.41       -1.49       
C           113.07      -0.24       -1.06       
C           120.49      -12.36      8.44        
C           120.59      -11.1       9.01        
C           120.0       -12.41      7.11        
C           119.86      -11.19      6.4         
C           120.06      -9.91       6.91        
C           120.46      -9.89       8.25        
N           119.35      -11.11      5.12        
C           119.31      -9.77       4.67        
C           119.63      -8.88       5.87        
O           118.91      -9.55       3.57        
C           118.5       -12.09      4.53        
C           119.38      -7.46       5.85        
C           119.01      -6.44       4.8         
C           118.61      -5.26       5.49        
N           118.65      -5.43       6.9         
C           119.21      -6.7        7.16        
C           118.93      -6.42       3.42        
O           119.38      -7.13       8.24        
C           118.12      -4.58       7.92        
H           120.59      -8.98       8.82        
H           119.69      -13.28      6.67        
H           120.97      -11.02      10.06       
H           117.58      -3.34       5.5         
H           119.3       -7.29       2.88        
H           118.38      -5.42       1.64        
H           117.84      -11.63      3.79        
H           117.85      -12.59      5.25        
H           119.10393   -12.80896   3.9764      
H           117.66      -5.23       8.74        
H           118.89506   -4.04894    8.47259     
H           117.23      -4.09       7.61        
C           118.4       -5.31       2.74        
C           118.03      -4.16       4.88        
C           117.93      -4.16       3.46        
C           120.8       -19.39      11.85       
S           120.92      -18.87      10.21       
C           120.94      -18.33      12.72       
C           120.99      -17.06      12.07       
C           120.96      -17.17      10.63       
N           120.91      -15.73      12.34       
C           120.84      -15.0       11.12       
C           120.85      -15.88      10.02       
C           120.45      -15.17      13.6        
H           120.43      -14.08      13.54       
H           121.22      -15.27      14.29       
H           119.54303   -15.69618   13.89771    
H           120.88      -12.79      11.28       
H           120.9       -18.45      13.79       
C           120.79      -13.65      10.61       
S           120.62      -15.1       8.53        
C           120.64      -13.51      9.29        
C           120.57      -30.3       14.1        
C           120.31      -29.31      15.01       
C           121.04      -29.86      12.87       
C           121.27      -28.56      12.63       
C           120.94      -27.51      13.56       
C           120.49      -27.94      14.77       
N           121.65      -27.94      11.43       
C           121.54      -26.55      11.56       
C           120.98      -26.23      12.91       
O           121.79      -25.88      10.66       
C           122.2       -28.54      10.2        
C           120.83      -24.92      13.37       
C           120.69      -23.57      12.79       
C           120.78      -22.61      13.77       
N           120.98      -23.25      15.05       
C           121.0       -24.63      14.89       
C           120.53      -23.06      11.47       
O           121.26      -25.4       15.84       
C           120.63      -22.68      16.36       
H           120.01      -27.19      15.39       
H           121.34      -30.6       12.13       
H           119.73      -29.65      15.92       
H           121.14      -20.68      14.3        
H           120.38      -23.72      10.67       
H           120.34      -21.5       10.2        
H           122.48      -29.61      10.35       
H           123.07      -27.91      9.85        
H           121.49537   -28.63964   9.37437     
H           120.11      -21.78      16.15       
H           121.53082   -22.31404   16.85264    
H           120.03      -23.31      16.98       
C           120.57      -21.77      11.19       
C           120.89      -21.29      13.48       
C           120.76      -20.81      12.16       
C           119.33      -38.07      14.66       
S           119.46      -36.99      13.25       
C           119.67      -37.4       15.81       
C           119.94      -36.0       15.61       
C           119.82      -35.61      14.24       
N           120.12      -34.83      16.37       
C           120.21      -33.82      15.48       
C           120.0       -34.22      14.22       
C           120.3       -34.71      17.76       
H           120.54      -33.69      18.08       
H           121.14      -35.28      18.02       
H           119.44925   -34.99816   18.37748    
H           120.56      -31.87      16.53       
H           119.77      -37.94      16.73       
C           120.38      -32.38      15.59       
S           119.93      -32.86      13.18       
C           120.36      -31.73      14.42       
C           114.94      -48.12      12.94       
C           114.61      -46.97      12.3        
C           116.17      -48.15      13.67       
C           116.93      -47.01      13.86       
C           116.54      -45.77      13.2        
C           115.38      -45.81      12.42       
N           118.05      -46.74      14.65       
C           118.38      -45.39      14.62       
C           117.48      -44.73      13.62       
O           119.39      -44.92      15.2        
C           118.97      -47.72      15.23       
C           117.68      -43.44      13.23       
C           118.33      -42.24      13.88       
C           118.03      -41.16      13.01       
N           117.25      -41.55      11.89       
C           116.91      -42.86      12.03       
C           118.95      -41.85      15.05       
O           116.48      -43.35      11.03       
C           117.19      -40.85      10.58       
H           115.07      -44.94      11.87       
H           116.47      -49.09      14.13       
H           113.64      -46.9       11.69       
H           118.12      -39.06      12.5        
H           119.29      -42.63      15.77       
H           119.73      -40.28      16.23       
H           118.63      -48.72      15.19       
H           119.89      -47.72      14.61       
H           119.1474    -47.62775   16.3015     
H           116.86      -39.82      10.74       
H           118.18875   -40.8711    10.14393    
H           116.51      -41.31      9.83        
C           119.25      -40.5       15.3        
C           118.29      -39.81      13.26       
C           118.95      -39.48      14.39       
C           109.4       -53.84      12.04       
S           109.38      -52.16      11.53       
C           110.58      -54.14      12.64       
C           111.49      -53.05      12.83       
C           111.0       -51.9       12.21       
N           112.89      -52.88      13.2        
C           113.19      -51.52      13.02       
C           112.07      -50.94      12.39       
C           113.85      -53.83      13.65       
H           114.8       -53.32      13.8        
H           114.19      -54.45      12.8        
H           113.56978   -54.37529   14.55124    
H           115.22      -50.96      13.62       
H           110.85      -55.14      12.92       
C           114.26      -50.63      13.1        
S           112.36      -49.2       12.15       
C           113.97      -49.31      12.76       
C           99.77       -59.14      9.48        
C           100.56      -58.57      8.46        
C           100.32      -59.03      10.81       
C           101.59      -58.41      11.08       
C           102.4       -57.88      10.05       
C           101.82      -57.93      8.73        
N           102.08      -58.14      12.35       
C           103.33      -57.49      12.25       
C           103.57      -57.17      10.72       
O           103.94      -57.15      13.25       
C           101.53      -58.62      13.61       
C           104.64      -56.47      10.2        
C           105.95      -56.09      10.85       
C           106.56      -55.12      10.02       
N           105.95      -55.09      8.75        
C           104.91      -56.02      8.75        
C           106.64      -56.27      12.14       
O           104.29      -56.23      7.73        
C           105.97      -53.93      7.79        
H           102.32      -57.48      7.92        
H           99.72       -59.6       11.59       
H           100.18      -58.61      7.5         
H           108.15      -53.82      9.64        
H           106.2       -56.91      12.88       
H           108.29      -55.72      13.42       
H           100.62      -59.15      13.38       
H           102.12      -59.33      14.12       
H           101.33449   -57.83098   14.33617    
H           106.39      -53.0       8.31        
H           106.39951   -54.16623   6.81644     
H           104.92      -53.85      7.52        
C           107.8       -55.57      12.47       
C           107.75      -54.49      10.33       
C           108.35      -54.74      11.56       
C           92.14       -59.78      7.82        
S           93.48       -58.94      7.03        
C           92.63       -60.47      8.92        
C           94.06       -60.48      9.0         
C           94.67       -59.6       8.11        
N           95.06       -61.08      9.77        
C           96.28       -60.45      9.43        
C           96.03       -59.53      8.42        
C           94.94       -62.31      10.64       
H           95.8        -62.22      11.32       
H           95.14       -63.22      10.05       
H           94.00802    -62.36917   11.20215    
H           97.92       -61.03      10.86       
H           91.93       -60.99      9.59        
C           97.61       -60.51      9.96        
S           97.54       -58.84      7.9         
C           98.38       -59.65      9.26        
H           22.33       36.99       0.88        
H           91.09       -59.5       7.77        
