512

C           26.41       37.8        38.04       
C           25.47       37.31       38.94       
C           26.52       39.2        37.86       
C           25.49       40.0        38.44       
C           24.44       39.49       39.22       
C           24.53       38.12       39.52       
N           25.35       41.41       38.42       
C           24.15       41.84       38.95       
C           23.4        40.58       39.45       
O           23.72       42.99       38.9        
C           26.36       42.37       38.2        
C           22.1        40.54       40.06       
C           21.14       41.57       40.59       
C           19.95       40.87       41.08       
N           20.17       39.52       41.08       
C           21.34       39.22       40.46       
C           21.01       42.96       40.57       
O           21.65       38.02       40.44       
C           19.21       38.51       41.39       
H           23.92       37.72       40.29       
H           27.3        39.69       37.27       
H           25.57       36.25       39.25       
H           17.89       40.99       41.72       
H           21.74       43.45       39.94       
H           19.95       44.66       41.12       
H           27.25       41.99       37.77       
H           26.01       43.21       37.57       
H           26.70766    42.73895    39.16494    
H           18.21       38.84       41.17       
H           19.33046    38.21239    42.43164    
H           19.31       37.58       40.79       
C           19.97       43.62       41.19       
C           18.81       41.53       41.47       
C           18.77       42.93       41.56       
C           32.79       33.97       36.03       
S           32.55       35.69       36.16       
C           31.69       33.23       36.33       
C           30.56       34.06       36.63       
C           30.86       35.42       36.53       
N           29.27       33.84       36.97       
C           28.71       35.07       37.12       
C           29.66       36.12       36.86       
C           28.56       32.58       37.38       
H           27.48       32.71       37.42       
H           28.92       32.27       38.32       
H           28.70736    31.77688    36.65793    
H           26.5        34.96       37.57       
H           31.59       32.17       36.21       
C           27.41       35.57       37.38       
S           29.03       37.64       37.26       
C           27.49       36.91       37.59       
C           43.06       29.53       37.07       
C           42.84       30.76       36.45       
C           41.94       28.88       37.59       
C           40.65       29.36       37.3        
C           40.4        30.63       36.75       
C           41.55       31.28       36.25       
N           39.46       28.74       37.56       
C           38.37       29.53       37.23       
C           38.97       30.9        36.71       
O           37.25       29.06       37.21       
C           39.36       27.74       38.6        
C           38.22       31.96       36.26       
C           36.78       32.21       36.13       
C           36.55       33.61       36.08       
N           37.76       34.26       36.13       
C           38.86       33.37       36.19       
C           35.62       31.46       36.04       
O           40.02       33.8        36.38       
C           37.98       35.68       36.32       
H           41.41       32.17       35.65       
H           42.08       27.9        38.06       
H           43.68       31.25       35.9        
H           35.24       35.29       36.2        
H           35.7        30.41       36.17       
H           33.53       31.38       35.77       
H           40.29       27.25       38.73       
H           38.98       28.14       39.53       
H           38.68994    26.91106    38.37204    
H           38.96       35.8        36.79       
H           37.87857    36.26687    35.40709    
H           37.14       35.98       36.97       
C           34.38       32.05       35.97       
C           35.33       34.2        36.06       
C           34.18       33.42       35.98       
C           50.67       28.3        38.38       
S           49.93       29.52       37.34       
C           49.76       27.58       39.09       
C           48.43       27.82       38.67       
C           48.27       28.9        37.8        
N           47.19       27.25       38.92       
C           46.28       28.04       38.28       
C           46.94       29.04       37.59       
C           46.89       26.31       40.0        
H           45.76       26.24       40.08       
H           47.2        26.72       40.94       
H           47.21751    25.28735    39.81285    
H           44.12       27.54       38.86       
H           50.06       26.73       39.73       
C           44.86       28.15       38.25       
S           45.77       29.95       36.63       
C           44.44       29.07       37.33       
C           61.81       26.83       39.45       
C           60.93       26.5        40.43       
C           61.35       27.6        38.4        
C           60.01       28.05       38.44       
C           59.03       27.63       39.33       
C           59.58       26.82       40.36       
N           59.38       28.94       37.58       
C           58.04       28.97       37.74       
C           57.68       27.92       38.82       
O           57.25       29.68       37.09       
C           60.04       29.91       36.7        
C           56.39       27.6        39.22       
C           54.99       27.95       38.82       
C           54.1        27.44       39.75       
N           54.75       26.82       40.76       
C           56.07       26.82       40.48       
C           54.38       28.67       37.81       
O           56.84       26.37       41.33       
C           54.2        26.66       42.12       
H           58.92       26.42       41.11       
H           62.02       28.0        37.65       
H           61.19       25.92       41.32       
H           52.08       27.13       40.42       
H           54.99       29.19       37.01       
H           52.69       29.28       36.82       
H           60.96       29.51       36.45       
H           59.4        30.02       35.83       
H           60.12651    30.88329    37.18304    
H           53.48       27.43       42.46       
H           53.70822    25.70455    42.30266    
H           55.03       26.87       42.73       
C           52.99       28.83       37.74       
C           52.7        27.54       39.64       
C           52.1        28.29       38.63       
C           68.82       23.71       38.59       
S           68.24       25.19       37.97       
C           67.92       23.09       39.41       
C           66.73       23.81       39.55       
C           66.76       25.04       38.84       
N           65.57       23.71       40.26       
C           64.78       24.82       39.87       
C           65.41       25.65       38.96       
C           65.21       22.72       41.27       
H           64.14       22.65       41.23       
H           65.49       23.07       42.18       
H           65.57417    21.71152    41.07391    
H           62.68       24.5        40.54       
H           68.2        22.09       39.79       
C           63.42       25.16       40.07       
S           64.4        26.93       38.45       
C           63.13       26.29       39.45       
C           78.86       19.98       35.86       
C           78.43       21.32       35.64       
C           77.94       19.2        36.54       
C           76.7        19.65       36.99       
C           76.35       21.01       36.77       
C           77.2        21.81       36.08       
N           75.62       18.98       37.57       
C           74.6        19.86       37.84       
C           75.02       21.22       37.4        
O           73.65       19.54       38.52       
C           75.55       17.51       37.67       
C           74.17       22.32       37.58       
C           72.75       22.41       37.76       
C           72.43       23.78       37.96       
N           73.55       24.56       37.94       
C           74.64       23.8        37.62       
C           71.68       21.53       37.69       
O           75.79       24.27       37.5        
C           73.68       25.99       38.21       
H           76.95       22.83       35.96       
H           78.2        18.17       36.73       
H           79.08       22.11       35.14       
H           70.89       25.26       38.26       
H           71.86       20.48       37.33       
H           69.49       21.3        37.85       
H           76.15       17.2        36.82       
H           76.0        17.17       38.59       
H           74.56555    17.05196    37.57429    
H           72.7        26.47       38.15       
H           74.02538    26.25455    39.20941    
H           74.18       26.55       37.36       
C           70.34       21.95       37.92       
C           71.13       24.21       38.19       
C           70.11       23.26       38.26       
C           85.91       16.67       35.11       
S           84.36       15.92       35.1        
C           85.88       18.01       35.24       
C           84.56       18.48       35.12       
C           83.61       17.48       35.05       
N           83.95       19.74       35.27       
C           82.57       19.45       35.32       
C           82.35       18.09       35.16       
C           84.53       21.08       35.46       
H           83.74       21.88       35.16       
H           85.43       21.28       34.86       
H           84.71466    21.26466    36.51825    
H           81.35       21.35       35.43       
H           86.85       18.51       35.38       
C           81.4        20.27       35.46       
S           80.65       17.86       35.25       
C           80.24       19.54       35.55       
C           93.55       8.92        38.41       
C           92.9        8.81        37.16       
C           93.27       10.11       39.14       
C           92.41       11.04       38.65       
C           91.67       10.91       37.43       
C           91.94       9.71        36.72       
N           92.13       12.26       39.2        
C           91.3        13.06       38.46       
C           90.93       12.18       37.2        
O           91.03       14.17       38.75       
C           92.46       12.66       40.62       
C           90.02       12.71       36.15       
C           89.25       14.04       36.03       
C           88.39       13.83       34.87       
N           88.6        12.57       34.35       
C           89.63       11.94       34.91       
C           89.15       15.3        36.66       
O           90.04       10.82       34.45       
C           87.48       11.82       33.85       
H           91.38       9.46        35.8        
H           93.75       10.26       40.13       
H           93.09       7.96        36.53       
H           86.54       14.35       33.84       
H           89.65       15.53       37.59       
H           87.9        17.05       36.85       
H           92.45       13.76       40.65       
H           93.32       12.22       41.05       
H           91.66202    12.33938    41.28973    
H           86.49       12.09       34.24       
H           87.45869    11.74185    32.76301    
H           87.64       10.83       34.12       
C           88.1        16.15       36.24       
C           87.27       14.61       34.6        
C           87.15       15.83       35.29       
C           97.71       3.41        42.15       
S           97.57       5.17        42.44       
C           96.91       2.94        41.08       
C           96.2        4.05        40.51       
C           96.5        5.32        41.06       
N           95.35       4.15        39.44       
C           95.01       5.55        39.39       
C           95.74       6.28        40.32       
C           94.58       2.98        39.06       
H           95.23       2.21        39.25       
H           93.64       2.82        39.64       
H           94.39745    3.00808     37.98576    
H           93.59       6.14        37.75       
H           96.92       1.88        40.73       
C           94.21       6.41        38.58       
S           95.25       7.93        40.33       
C           94.3        7.81        38.94       
C           104.77      -1.86       48.87       
C           104.63      -2.12       47.51       
C           103.76      -1.12       49.43       
C           102.69      -0.69       48.69       
C           102.59      -0.81       47.3        
C           103.6       -1.58       46.78       
N           101.65      0.07        49.2        
C           100.78      0.47        48.18       
C           101.3       -0.17       46.88       
O           99.82       1.21        48.44       
C           101.28      0.19        50.62       
C           100.68      -0.1        45.62       
C           99.78       0.87        45.03       
C           99.64       0.47        43.68       
N           100.27      -0.7        43.46       
C           100.85      -1.19       44.58       
C           99.28       2.08        45.38       
O           101.4       -2.28       44.61       
C           100.56      -1.24       42.15       
H           103.57      -1.7        45.68       
H           103.83      -0.93       50.47       
H           105.37      -2.77       47.07       
H           99.06       0.95        41.67       
H           99.46       2.4         46.38       
H           98.28       3.9         44.83       
H           100.74      1.18        50.77       
H           102.1       0.24        51.32       
H           100.58305   -0.57528    50.96164    
H           101.35      -1.96       42.16       
H           99.71897    -1.66417    41.6015     
H           101.01      -0.5        41.56       
C           98.68       2.93        44.4        
C           99.07       1.32        42.73       
C           98.55       2.58        43.04       
C           110.33      -5.73       52.74       
S           109.28      -6.23       51.42       
C           110.1       -4.45       53.17       
C           109.35      -3.75       52.15       
C           108.68      -4.59       51.28       
N           108.73      -2.49       52.01       
C           107.62      -2.6        51.12       
C           107.67      -3.87       50.53       
C           108.83      -1.58       53.13       
H           107.92      -1.03       53.24       
H           109.0       -2.08       54.1        
H           109.64697   -0.88486    52.93651    
H           106.24      -0.82       50.94       
H           110.61      -4.04       54.06       
C           106.52      -1.82       50.62       
S           106.57      -4.0        49.15       
C           105.85      -2.49       49.6        
C           117.37      -13.34      57.06       
C           117.13      -12.16      57.8        
C           116.74      -13.45      55.78       
C           115.99      -12.38      55.31       
C           115.67      -11.18      55.98       
C           116.21      -11.13      57.3        
N           115.35      -12.39      54.06       
C           114.67      -11.22      53.82       
C           114.72      -10.38      55.14       
O           114.14      -11.1       52.78       
C           115.42      -13.46      53.12       
C           114.1       -9.15       55.32       
C           113.03      -8.47       54.56       
C           112.81      -7.23       55.15       
N           113.63      -7.11       56.29       
C           114.41      -8.2        56.49       
C           112.27      -8.85       53.43       
O           115.18      -8.35       57.45       
C           113.56      -5.95       57.22       
H           116.04      -10.3       57.83       
H           116.89      -14.39      55.19       
H           117.53      -12.02      58.85       
H           111.87      -5.3        54.97       
H           112.3       -9.82       52.99       
H           110.78      -8.32       52.06       
H           114.57      -13.35      52.5        
H           115.29      -14.42      53.54       
H           116.30979   -13.32995   52.50399    
H           113.87      -5.12       56.65       
H           112.5711    -5.69736    57.60257    
H           114.31      -6.07       58.01       
C           111.39      -7.93       52.87       
C           112.0       -6.27       54.53       
C           111.2       -6.65       53.43       
C           121.78      -19.54      58.97       
S           121.33      -18.87      57.43       
C           121.54      -18.66      59.99       
C           120.91      -17.47      59.61       
C           120.63      -17.51      58.21       
N           120.38      -16.29      60.14       
C           119.69      -15.7       59.13       
C           119.78      -16.42      57.9        
C           120.21      -15.97      61.57       
H           119.85      -14.98      61.66       
H           121.17      -16.04      62.06       
H           119.56983   -16.71343   62.04497    
H           118.53      -13.82      59.66       
H           121.89      -18.77      60.99       
C           118.79      -14.54      58.9        
S           118.71      -15.71      56.66       
C           118.17      -14.43      57.7        
C           123.93      -30.41      59.63       
C           124.72      -29.59      60.35       
C           123.26      -29.84      58.48       
C           123.41      -28.46      58.33       
C           124.17      -27.53      59.2        
C           124.97      -28.21      60.14       
N           122.75      -27.7       57.34       
C           123.02      -26.39      57.48       
C           123.74      -26.18      58.81       
O           122.57      -25.54      56.69       
C           121.89      -28.14      56.29       
C           123.95      -24.93      59.37       
C           123.3       -23.57      59.19       
C           123.92      -22.6       59.99       
N           124.94      -23.23      60.66       
C           125.05      -24.59      60.28       
C           122.19      -23.13      58.44       
O           125.97      -25.21      60.76       
C           125.92      -22.55      61.51       
H           125.57      -27.58      60.81       
H           122.67      -30.46      57.8        
H           125.14      -30.01      61.28       
H           124.02      -20.49      60.51       
H           121.62      -23.87      57.85       
H           121.1       -21.53      57.63       
H           122.27      -29.01      55.74       
H           121.75      -27.33      55.6        
H           120.90568   -28.34102   56.71284    
H           125.39      -21.98      62.22       
H           126.59773   -21.87227   60.99089    
H           126.43      -23.3       62.12       
C           121.87      -21.79      58.34       
C           123.54      -21.2       59.89       
C           122.47      -20.79      59.08       
C           121.62      -37.95      60.75       
S           121.79      -37.0       59.24       
C           122.08      -37.21      61.86       
C           122.54      -35.89      61.52       
C           122.36      -35.63      60.16       
N           123.04      -34.77      62.22       
C           123.2       -33.75      61.29       
C           122.83      -34.25      59.99       
C           123.57      -34.8       63.57       
H           123.59      -33.71      63.73       
H           124.62      -35.07      63.57       
H           122.98083   -35.38917   64.27275    
H           123.99      -31.88      62.27       
H           122.03      -37.67      62.83       
C           123.69      -32.39      61.35       
S           123.13      -32.99      58.85       
C           123.67      -31.82      60.08       
C           115.48      -47.34      62.27       
C           115.76      -46.96      60.96       
C           115.97      -46.56      63.33       
C           116.74      -45.43      63.07       
C           117.04      -45.0       61.75       
C           116.52      -45.8       60.73       
N           117.5       -44.71      63.97       
C           118.05      -43.57      63.38       
C           117.82      -43.7       61.89       
O           118.37      -42.59      64.06       
C           117.83      -45.3       65.29       
C           118.38      -42.74      60.94       
C           119.39      -41.66      61.15       
C           119.49      -41.02      59.94       
N           118.62      -41.6       58.95       
C           117.91      -42.68      59.49       
C           120.28      -41.26      62.12       
O           117.24      -43.44      58.79       
C           118.61      -41.21      57.52       
H           116.68      -45.55      59.63       
H           115.65      -46.76      64.37       
H           115.48      -47.5       60.01       
H           120.3       -39.38      58.81       
H           120.39      -41.87      62.97       
H           121.79      -39.89      62.81       
H           116.99      -45.24      66.04       
H           117.86      -46.36      65.12       
H           118.75136   -44.97859   65.77568    
H           118.88      -40.18      57.3        
H           119.29692   -41.86187   56.98028    
H           117.6       -41.36      57.2        
C           121.09      -40.09      61.96       
C           120.32      -39.91      59.73       
C           121.0       -39.3       60.8        
C           110.45      -53.11      63.91       
S           110.69      -51.62      64.75       
C           111.32      -53.35      62.87       
C           112.2       -52.24      62.75       
C           112.03      -51.22      63.67       
N           113.21      -51.91      61.85       
C           113.6       -50.64      62.24       
C           112.86      -50.18      63.35       
C           114.04      -52.89      61.15       
H           114.81      -52.41      60.47       
H           113.52      -53.52      60.44       
H           114.50153   -53.49139   61.93321    
H           115.26      -50.01      61.01       
H           111.14      -54.21      62.2        
C           114.64      -49.79      61.84       
S           113.48      -48.67      63.85       
C           114.56      -48.52      62.47       
C           101.63      -59.6       65.71       
C           101.45      -58.29      65.15       
C           102.89      -59.99      66.15       
C           103.96      -59.11      66.12       
C           103.74      -57.72      65.72       
C           102.52      -57.42      65.21       
N           105.27      -59.37      66.61       
C           106.0       -58.2       66.34       
C           105.04      -57.08      65.86       
O           107.23      -58.03      66.66       
C           105.64      -60.36      67.54       
C           105.6       -55.83      65.65       
C           106.91      -55.33      65.12       
C           106.88      -53.9       65.11       
N           105.57      -53.56      65.39       
C           104.72      -54.6       65.71       
C           107.99      -55.93      64.55       
O           103.53      -54.5       65.9        
C           105.25      -52.2       65.87       
H           102.43      -56.4       64.87       
H           102.95      -60.98      66.55       
H           100.51      -57.93      64.91       
H           107.94      -52.07      64.67       
H           107.94      -56.9       64.39       
H           109.99      -55.68      63.63       
H           104.77      -61.06      67.78       
H           106.4       -60.99      67.18       
H           105.86665   -59.85863   68.48093    
H           104.13      -52.04      65.66       
H           105.69102   -52.01799   66.85004    
H           105.71      -51.59      65.12       
C           109.14      -55.15      64.15       
C           107.99      -53.14      64.62       
C           109.2       -53.78      64.27       
C           94.68       -63.21      65.76       
S           95.29       -61.88      64.79       
C           95.68       -63.81      66.49       
C           96.97       -63.1       66.32       
C           96.89       -62.02      65.47       
N           98.18       -63.11      66.98       
C           98.94       -62.08      66.39       
C           98.13       -61.34      65.54       
C           98.48       -63.78      68.2        
H           99.46       -63.5       68.5        
H           98.46       -64.82      68.07       
H           97.69626    -63.56625   68.92674    
H           101.03      -61.82      67.26       
H           95.43       -64.59      67.2        
C           100.25      -61.59      66.49       
S           99.02       -59.97      64.98       
C           100.44      -60.45      65.78       
H           17.78       43.43       41.5        
H           93.72       -63.63      65.69       
