512

C           24.47       41.48       4.1         
C           23.33       41.41       4.88        
C           24.49       42.51       3.15        
C           23.35       43.22       2.76        
C           22.16       43.06       3.51        
C           22.25       42.19       4.6         
N           23.26       44.32       1.85        
C           21.97       44.84       1.96        
C           21.11       43.93       2.9         
O           21.58       45.72       1.26        
C           24.32       45.14       1.42        
C           19.74       44.06       2.97        
C           18.76       45.17       2.63        
C           17.57       44.77       3.16        
N           17.63       43.52       3.7         
C           18.89       42.98       3.63        
C           18.91       46.47       2.24        
O           19.24       41.93       4.17        
C           16.49       42.91       4.45        
H           21.35       42.01       5.25        
H           25.46       42.77       2.61        
H           23.29       40.63       5.62        
H           15.41       45.33       3.33        
H           19.89       46.92       2.16        
H           17.99       48.41       2.13        
H           25.37       44.63       1.36        
H           24.06       45.58       0.46        
H           24.46004    45.94521    2.14119     
H           15.58       42.89       3.84        
H           16.28725    43.44135    5.37987     
H           16.68       41.86       4.69        
C           17.84       47.33       2.27        
C           16.47       45.61       3.03        
C           16.61       46.9        2.65        
C           30.84       36.83       4.2         
S           30.53       38.29       3.23        
C           29.84       36.63       5.06        
C           28.71       37.47       4.84        
C           28.95       38.49       3.9         
N           27.56       37.71       5.56        
C           27.03       38.87       5.01        
C           27.76       39.23       3.92        
C           26.99       37.08       6.71        
H           26.03       37.37       6.95        
H           27.68       37.26       7.54        
H           26.91698    36.00666    6.53476     
H           25.03       39.36       5.99        
H           29.8        35.83       5.71        
C           25.77       39.6        5.18        
S           27.08       40.71       3.3         
C           25.63       40.64       4.31        
C           39.72       30.36       2.86        
C           39.45       31.45       2.05        
C           38.86       30.09       3.93        
C           37.77       30.93       4.06        
C           37.49       32.08       3.23        
C           38.39       32.31       2.19        
N           36.69       30.74       4.96        
C           35.67       31.6        4.64        
C           36.2        32.63       3.67        
O           34.58       31.47       5.22        
C           36.62       29.71       6.03        
C           35.55       33.86       3.33        
C           34.21       34.35       3.59        
C           34.26       35.77       3.39        
N           35.45       36.13       2.78        
C           36.25       35.02       2.73        
C           32.98       33.82       4.08        
O           37.46       35.14       2.36        
C           35.78       37.4        2.2         
H           38.18       33.04       1.44        
H           39.1        29.32       4.64        
H           40.11       31.6        1.18        
H           33.32       37.71       3.37        
H           32.83       32.82       4.28        
H           31.04       34.25       4.77        
H           37.61       29.28       6.22        
H           36.17       30.13       6.96        
H           35.93188    28.92357    5.71997     
H           34.95       37.9        1.74        
H           36.22203    38.1114     2.89758     
H           36.43       37.34       1.37        
C           31.98       34.71       4.35        
C           33.23       36.63       3.57        
C           32.08       36.07       4.11        
C           46.99       27.55       2.06        
S           46.14       28.55       0.95        
C           46.21       27.03       3.05        
C           44.89       27.51       3.0         
C           44.69       28.42       1.93        
N           43.72       27.38       3.71        
C           42.82       28.33       3.23        
C           43.37       28.91       2.14        
C           43.4        26.68       4.9         
H           42.35       26.58       5.01        
H           43.68       27.3        5.71        
H           43.94749    25.73748    4.9         
H           40.93       28.29       4.37        
H           46.59       26.33       3.79        
C           41.48       28.68       3.52        
S           42.21       30.09       1.56        
C           41.0        29.55       2.69        
C           57.55       24.9        -0.52       
C           56.68       23.93       -0.18       
C           57.23       26.23       -0.41       
C           55.96       26.53       0.1         
C           54.97       25.57       0.46        
C           55.42       24.25       0.23        
N           55.4        27.82       0.18        
C           54.08       27.84       0.61        
C           53.75       26.33       0.83        
O           53.43       28.81       0.83        
C           56.17       29.02       0.05        
C           52.54       25.94       1.31        
C           51.23       26.64       1.4         
C           50.26       25.71       1.92        
N           50.92       24.48       2.07        
C           52.24       24.58       1.74        
C           50.65       27.85       1.04        
O           52.98       23.64       1.92        
C           50.32       23.17       2.03        
H           54.68       23.39       0.43        
H           57.95       26.98       -0.63       
H           56.93       22.9        -0.29       
H           48.29       25.31       2.66        
H           51.24       28.51       0.52        
H           48.98       29.19       0.98        
H           57.24       28.83       -0.03       
H           55.81       29.57       -0.85       
H           56.15597    29.63747    0.94813     
H           51.03       22.44       1.71        
H           49.8802     22.77208    2.94451     
H           49.53       23.19       1.23        
C           49.3        28.16       1.2         
C           48.94       26.05       2.22        
C           48.41       27.3        1.85        
C           64.85       23.85       -3.07       
S           63.99       25.26       -2.45       
C           63.97       22.84       -3.23       
C           62.63       23.15       -2.91       
C           62.47       24.4        -2.43       
N           61.42       22.45       -2.74       
C           60.57       23.36       -2.13       
C           61.18       24.6        -1.92       
C           61.21       21.06       -2.79       
H           60.18       20.7        -2.93       
H           61.66       20.59       -1.95       
H           61.67272    20.61864    -3.67272    
H           58.6        22.48       -1.72       
H           64.26       21.81       -3.61       
C           59.25       23.31       -1.64       
S           60.17       25.73       -1.07       
C           58.86       24.52       -1.08       
C           75.82       22.14       -2.65       
C           75.25       23.23       -2.0        
C           75.11       21.31       -3.52       
C           73.81       21.67       -3.68       
C           73.16       22.73       -3.03       
C           73.92       23.55       -2.15       
N           72.94       20.98       -4.48       
C           71.65       21.42       -4.29       
C           71.69       22.68       -3.42       
O           70.74       20.89       -4.93       
C           73.33       20.28       -5.71       
C           70.52       23.47       -3.13       
C           69.04       23.42       -3.36       
C           68.48       24.63       -2.8        
N           69.42       25.57       -2.59       
C           70.67       24.93       -2.47       
C           68.24       22.35       -3.8        
O           71.64       25.57       -2.22       
C           69.24       27.03       -2.77       
H           73.5        24.29       -1.46       
H           75.52       20.38       -3.93       
H           75.86       23.75       -1.3        
H           66.69       25.7        -2.54       
H           68.63       21.43       -4.11       
H           66.16       21.72       -3.86       
H           74.3        19.81       -5.62       
H           72.64       19.4        -5.99       
H           73.45528    20.96906    -6.54522    
H           68.33       27.22       -3.27       
H           69.21196    27.56986    -1.8235     
H           70.0        27.42       -3.43       
C           66.85       22.55       -3.69       
C           67.11       24.81       -2.85       
C           66.27       23.77       -3.28       
C           83.49       20.67       -2.44       
S           82.32       20.35       -3.68       
C           82.99       21.37       -1.41       
C           81.57       21.52       -1.48       
C           81.07       20.93       -2.67       
N           80.55       22.13       -0.69       
C           79.43       22.01       -1.47       
C           79.67       21.23       -2.64       
C           80.75       23.0        0.41        
H           79.73       23.22       0.82        
H           81.13       23.99       0.15        
H           81.42818    22.56402    1.14355     
H           77.61       22.77       -0.35       
H           83.62       21.73       -0.6        
C           78.01       22.32       -1.29       
S           78.23       21.04       -3.59       
C           77.27       21.92       -2.34       
C           93.52       15.61       -4.0        
C           92.43       15.43       -4.87       
C           93.29       16.53       -2.95       
C           92.1        17.23       -2.92       
C           90.99       17.14       -3.8        
C           91.24       16.17       -4.77       
N           91.78       18.16       -1.95       
C           90.53       18.75       -2.24       
C           89.83       18.03       -3.38       
O           90.04       19.46       -1.42       
C           92.75       18.59       -0.94       
C           88.57       18.31       -3.76       
C           87.5        19.18       -3.15       
C           86.46       19.17       -4.11       
N           86.78       18.4        -5.28       
C           88.02       17.86       -5.05       
C           87.16       19.81       -1.88       
O           88.46       17.13       -5.84       
C           85.94       18.01       -6.31       
H           90.5        15.94       -5.49       
H           94.11       16.82       -2.38       
H           92.55       14.68       -5.61       
H           84.48       19.49       -4.58       
H           87.77       19.75       -1.01       
H           85.64       20.64       -0.66       
H           92.42       19.64       -0.81       
H           93.79       18.68       -1.18       
H           92.59473    17.96893    -0.0578     
H           84.9        17.88       -5.86       
H           85.93283    18.61957    -7.21359    
H           86.14       16.94       -6.5        
C           85.86       20.29       -1.68       
C           85.26       19.71       -3.88       
C           84.91       20.31       -2.67       
C           99.98       11.14       -3.02       
S           99.21       12.27       -1.88       
C           99.27       10.98       -4.15       
C           98.16       11.87       -4.27       
C           97.99       12.67       -3.1        
N           97.12       12.04       -5.14       
C           96.39       13.1        -4.63       
C           96.85       13.42       -3.31       
C           96.82       11.22       -6.34       
H           95.98       11.71       -6.84       
H           97.7        11.27       -7.01       
H           96.54886    10.19106    -6.10362    
H           94.8        13.81       -5.98       
H           99.48       10.15       -4.87       
C           95.25       13.92       -5.05       
S           95.81       14.73       -2.62       
C           94.73       14.8        -4.03       
C           106.35      3.31        1.77        
C           105.77      3.08        0.53        
C           106.3       4.61        2.26        
C           105.79      5.67        1.5         
C           105.22      5.48        0.26        
C           105.19      4.14        -0.18       
N           105.71      6.96        1.9         
C           105.19      7.75        0.95        
C           104.63      6.81        -0.12       
O           105.08      8.95        0.97        
C           106.36      7.48        3.05        
C           103.85      7.24        -1.13       
C           103.02      8.37        -1.47       
C           102.59      8.31        -2.79       
N           103.22      7.23        -3.42       
C           103.89      6.5         -2.48       
C           102.44      9.45        -0.74       
O           104.43      5.52        -2.82       
C           102.79      6.71        -4.76       
H           104.68      4.01        -1.11       
H           106.65      4.8         3.24        
H           105.73      2.1         0.17        
H           101.41      9.24        -4.38       
H           102.68      9.57        0.33        
H           101.15      11.21       -0.61       
H           106.76      8.41        2.77        
H           107.25      6.88        3.39        
H           105.66348   7.54599     3.88583     
H           103.6       6.13        -5.15       
H           101.7802    6.30466     -4.824      
H           102.83      7.51        -5.47       
C           101.49      10.36       -1.24       
C           101.64      9.23        -3.31       
C           101.03      10.19       -2.53       
C           110.13      -2.69       5.07        
S           109.34      -2.64       3.5         
C           109.75      -1.62       5.91        
C           109.0       -0.65       5.14        
C           108.74      -1.04       3.82        
N           108.49      0.59        5.42        
C           107.89      1.0         4.26        
C           108.06      0.04        3.21        
C           108.85      1.4         6.57        
H           107.95      2.01        6.73        
H           108.97      0.71        7.37        
H           109.76024   1.95625     6.34605     
H           107.1       3.03        4.57        
H           110.01      -1.6        6.94        
C           107.26      2.21        3.88        
S           107.44      0.75        1.72        
C           107.03      2.22        2.5         
C           116.47      -11.38      8.03        
C           116.0       -10.52      9.02        
C           116.36      -10.92      6.71        
C           115.61      -9.79       6.44        
C           114.98      -9.0        7.44        
C           115.26      -9.37       8.78        
N           115.43      -9.25       5.15        
C           114.62      -8.16       5.32        
C           114.26      -7.93       6.78        
O           114.39      -7.46       4.35        
C           115.91      -9.78       3.9         
C           113.25      -7.01       7.16        
C           112.3       -6.18       6.44        
C           111.91      -5.17       7.33        
N           112.36      -5.42       8.64        
C           113.18      -6.5        8.61        
C           111.88      -6.0        5.08        
O           113.79      -6.83       9.66        
C           111.8       -4.9        9.86        
H           114.89      -8.78       9.61        
H           116.93      -11.4       5.91        
H           116.19      -10.86      10.01       
H           110.65      -3.48       7.72        
H           112.16      -6.69       4.36        
H           110.91      -4.86       3.6         
H           115.15      -9.55       3.17        
H           115.93      -10.89      3.88        
H           116.87366   -9.32737    3.66638     
H           111.78      -3.77       9.92        
H           110.846     -5.3387     10.15247    
H           112.49      -5.22       10.62       
C           111.18      -4.93       4.66        
C           111.12      -4.07       6.92        
C           110.83      -3.87       5.53        
C           121.03      -17.66      9.45        
S           120.4       -16.96      7.99        
C           120.68      -16.84      10.46       
C           119.95      -15.67      10.1        
C           119.62      -15.63      8.73        
N           119.28      -14.63      10.72       
C           118.64      -13.92      9.76        
C           118.84      -14.49      8.51        
C           119.69      -14.05      12.0        
H           118.96      -13.23      12.2        
H           120.72      -13.65      12.05       
H           119.46974   -14.71079   12.83842    
H           117.73      -12.04      10.52       
H           120.95      -17.23      11.51       
C           117.85      -12.74      9.71        
S           118.06      -13.58      7.28        
C           117.34      -12.44      8.47        
C           122.36      -28.54      10.85       
C           123.33      -27.71      11.43       
C           121.47      -28.07      10.0        
C           121.43      -26.66      9.78        
C           122.24      -25.76      10.43       
C           123.26      -26.31      11.24       
N           120.41      -25.95      9.02        
C           120.69      -24.59      9.15        
C           121.81      -24.38      10.13       
O           120.03      -23.71      8.66        
C           119.12      -26.39      8.49        
C           122.23      -23.13      10.56       
C           122.09      -21.84      9.93        
C           122.52      -20.8       10.8        
N           123.03      -21.41      11.97       
C           122.9       -22.79      11.88       
C           121.6       -21.32      8.67        
O           123.15      -23.61      12.81       
C           123.74      -20.75      13.05       
H           124.0       -25.64      11.68       
H           120.65      -28.71      9.54        
H           124.09      -28.05      12.12       
H           122.68      -18.88      11.36       
H           121.32      -22.0       7.95        
H           120.78      -19.69      7.54        
H           119.27      -27.28      7.96        
H           118.69      -25.68      7.7         
H           118.36055   -26.34123   9.27035     
H           123.29      -19.76      13.4        
H           124.79883   -20.58499   12.85061    
H           123.6       -21.42      13.88       
C           121.27      -19.96      8.47        
C           122.31      -19.51      10.62       
C           121.62      -19.02      9.48        
C           120.76      -35.96      12.63       
S           120.81      -35.18      11.04       
C           121.31      -35.17      13.61       
C           121.7       -33.92      13.07       
C           121.29      -33.68      11.76       
N           122.25      -32.74      13.61       
C           122.22      -31.83      12.61       
C           121.6       -32.33      11.45       
C           122.89      -32.56      14.91       
H           123.1       -31.53      14.9        
H           123.84      -32.98      15.01       
H           122.28901   -32.89388   15.75583    
H           123.07      -29.91      13.21       
H           121.43      -35.48      14.63       
C           122.63      -30.48      12.48       
S           121.54      -31.13      10.19       
C           122.29      -29.96      11.27       
C           116.22      -46.19      14.4        
C           116.6       -45.82      13.09       
C           116.4       -45.32      15.48       
C           116.94      -44.01      15.14       
C           117.27      -43.59      13.77       
C           117.12      -44.58      12.78       
N           117.12      -42.97      16.05       
C           117.38      -41.81      15.37       
C           117.63      -42.12      13.88       
O           117.53      -40.8       16.04       
C           117.11      -43.05      17.51       
C           118.17      -41.21      12.97       
C           118.74      -39.82      13.19       
C           118.86      -39.2       11.94       
N           118.52      -40.17      10.95       
C           118.02      -41.32      11.46       
C           119.24      -39.02      14.29       
O           117.51      -42.2       10.73       
C           118.55      -39.88      9.49        
H           117.5       -44.25      11.8        
H           116.2       -45.66      16.46       
H           116.56      -46.6       12.3        
H           119.66      -37.71      10.8        
H           119.14      -39.42      15.29       
H           120.17      -37.28      14.93       
H           116.4       -42.36      17.94       
H           116.73      -44.01      17.79       
H           118.12424   -42.92581   17.88948    
H           118.44      -38.76      9.38        
H           119.42064   -40.23392   8.93789     
H           117.72      -40.34      9.01        
C           119.75      -37.72      14.12       
C           119.51      -37.97      11.77       
C           119.98      -37.19      12.85       
C           113.35      -52.91      17.11       
S           113.17      -51.25      17.66       
C           114.03      -52.98      15.89       
C           114.39      -51.68      15.39       
C           113.99      -50.66      16.26       
N           115.11      -51.13      14.38       
C           115.15      -49.77      14.56       
C           114.39      -49.43      15.67       
C           115.65      -51.87      13.29       
H           116.22      -51.22      12.61       
H           114.92      -52.29      12.6        
H           116.36223   -52.59722   13.67985    
H           116.42      -48.72      12.99       
H           114.17      -53.93      15.4        
C           115.74      -48.64      13.91       
S           114.26      -47.71      15.84       
C           115.51      -47.47      14.55       
C           109.5       -61.44      23.28       
C           108.89      -60.21      23.17       
C           110.77      -61.59      22.72       
C           111.36      -60.54      22.08       
C           110.7       -59.28      21.91       
C           109.45      -59.14      22.46       
N           112.61      -60.49      21.45       
C           112.86      -59.3       20.87       
C           111.65      -58.35      21.18       
O           113.96      -58.98      20.37       
C           113.6       -61.5       21.58       
C           111.6       -57.01      20.87       
C           112.27      -56.12      19.83       
C           111.71      -54.82      19.97       
N           110.74      -54.79      20.95       
C           110.66      -55.99      21.59       
C           113.23      -56.29      18.8        
O           109.95      -56.17      22.54       
C           109.99      -53.64      21.34       
H           108.93      -58.23      22.41       
H           111.3       -62.49      22.88       
H           107.92      -60.0       23.52       
H           111.57      -52.79      19.27       
H           113.75      -57.21      18.64       
H           114.25      -55.4       17.16       
H           113.1       -62.4       21.96       
H           114.06      -61.71      20.61       
H           114.38075   -61.24904   22.29801    
H           109.08      -54.02      21.83       
H           110.53214   -52.97497   22.01225    
H           109.69      -53.21      20.42       
C           113.53      -55.24      17.95       
C           112.0       -53.77      19.08       
C           112.89      -54.0       18.01       
C           105.68      -66.09      28.26       
S           105.43      -64.36      27.89       
C           106.87      -66.6       27.72       
C           107.41      -65.7       26.83       
C           106.83      -64.44      26.81       
N           108.57      -65.68      26.01       
C           108.6       -64.43      25.42       
C           107.52      -63.61      25.88       
C           109.62      -66.66      26.03       
H           110.38      -66.34      25.37       
H           109.17      -67.54      25.53       
H           110.04416   -66.76262   27.02883    
H           110.28      -64.15      23.99       
H           107.1       -67.66      27.79       
C           109.44      -63.72      24.5        
S           107.52      -62.12      25.04       
C           108.95      -62.51      24.14       
H           16.1        47.65       3.19        
H           105.11      -66.57      29.05       
