512

C           23.52       40.31       4.25        
C           22.22       40.18       4.7         
C           23.88       41.56       3.7         
C           22.92       42.58       3.58        
C           21.56       42.43       4.05        
C           21.29       41.21       4.64        
N           23.01       43.88       3.03        
C           21.89       44.6        3.29        
C           20.8        43.68       3.84        
O           21.79       45.72       2.88        
C           24.29       44.46       2.74        
C           19.45       44.02       3.97        
C           18.67       45.28       3.79        
C           17.31       45.03       4.09        
N           17.15       43.68       4.24        
C           18.4        43.04       4.33        
C           18.94       46.61       3.54        
O           18.39       41.9        4.7         
C           15.96       43.04       4.71        
H           20.33       40.99       5.1         
H           24.87       41.66       3.32        
H           21.9        39.25       5.12        
H           15.31       45.67       4.41        
H           19.9        46.88       3.37        
H           18.11       48.72       3.51        
H           25.0        43.65       2.54        
H           24.21       45.07       1.82        
H           24.63924    45.03275    3.59912     
H           15.06       43.48       4.29        
H           15.89072    42.86679    5.78392     
H           16.0        42.05       4.32        
C           17.93       47.59       3.61        
C           16.29       45.94       4.13        
C           16.61       47.31       3.96        
C           29.4        35.33       3.55        
S           28.99       36.72       2.59        
C           28.47       35.04       4.46        
C           27.37       35.94       4.38        
C           27.52       36.93       3.42        
N           26.25       36.24       5.18        
C           25.67       37.34       4.63        
C           26.42       37.78       3.51        
C           25.71       35.54       6.41        
H           24.77       36.13       6.6         
H           26.39       35.66       7.18        
H           25.47379    34.49495    6.20958     
H           23.98       38.05       5.88        
H           28.68       34.28       5.22        
C           24.61       38.18       5.01        
S           25.6        39.18       2.89        
C           24.48       39.26       4.23        
C           39.89       31.48       3.96        
C           39.56       32.47       3.02        
C           38.84       31.0        4.7         
C           37.61       31.58       4.67        
C           37.26       32.63       3.82        
C           38.25       32.95       2.89        
N           36.53       31.23       5.53        
C           35.39       32.02       5.2         
C           35.78       32.95       4.07        
O           34.44       31.99       5.97        
C           36.46       30.31       6.6         
C           34.88       33.82       3.51        
C           33.42       33.84       3.5         
C           33.04       35.08       2.96        
N           34.15       35.79       2.54        
C           35.24       35.1        2.77        
C           32.32       33.03       3.97        
O           36.32       35.57       2.49        
C           34.18       37.11       1.91        
H           38.02       33.68       2.1         
H           39.04       30.2        5.35        
H           40.3        32.9        2.35        
H           31.46       36.45       2.5         
H           32.5        31.99       4.36        
H           30.21       32.86       4.42        
H           37.42       29.89       6.87        
H           36.17       30.8        7.55        
H           35.77454    29.49864    6.35519     
H           35.12       37.6        2.05        
H           33.70713    37.05437    0.92949     
H           33.55       37.66       2.56        
C           30.99       33.5        4.02        
C           31.68       35.44       2.9         
C           30.67       34.68       3.42        
C           46.92       28.36       2.68        
S           46.03       29.6        1.82        
C           46.18       27.79       3.71        
C           44.91       28.47       3.83        
C           44.73       29.54       2.93        
N           43.84       28.38       4.62        
C           42.97       29.4        4.31        
C           43.58       30.17       3.27        
C           43.77       27.33       5.68        
H           42.87       27.5        6.31        
H           44.68       27.4        6.32        
H           43.60987    26.38375    5.1632      
H           41.1        29.41       5.5         
H           46.55       26.88       4.21        
C           41.71       29.89       4.75        
S           42.5        31.48       2.8         
C           41.28       30.96       3.97        
C           56.67       24.77       -1.29       
C           55.69       23.87       -0.97       
C           56.49       26.14       -1.23       
C           55.17       26.56       -0.86       
C           54.16       25.69       -0.44       
C           54.44       24.34       -0.61       
N           54.81       27.88       -0.75       
C           53.52       27.99       -0.38       
C           53.04       26.58       0.04        
O           52.95       29.01       -0.23       
C           55.81       28.97       -1.08       
C           51.81       26.28       0.62        
C           50.63       27.05       1.01        
C           49.88       26.25       1.91        
N           50.48       25.0        2.13        
C           51.53       24.92       1.27        
C           50.13       28.31       0.77        
O           52.23       23.94       1.37        
C           50.06       23.94       2.96        
H           53.74       23.62       -0.25       
H           57.18       26.88       -1.75       
H           55.81       22.78       -0.99       
H           48.03       25.97       3.12        
H           50.54       29.03       0.03        
H           48.48       29.75       1.15        
H           56.67       28.82       -0.44       
H           56.18       28.89       -2.1        
H           55.54308    29.9944     -0.82029    
H           50.55       23.0        2.77        
H           50.06       24.16839    4.0258      
H           49.0        23.78       2.65        
C           48.92       28.76       1.38        
C           48.65       26.66       2.47        
C           48.21       27.92       2.21        
C           63.64       23.19       -4.33       
S           63.06       24.64       -3.54       
C           62.72       22.2        -4.38       
C           61.48       22.6        -3.83       
C           61.55       23.85       -3.28       
N           60.31       21.94       -3.49       
C           59.5        22.93       -2.96       
C           60.26       24.09       -2.68       
C           59.95       20.62       -3.64       
H           58.9        20.54       -3.48       
H           60.52       20.01       -2.99       
H           60.07671    20.23987    -4.65368    
H           57.4        22.23       -2.54       
H           62.95       21.18       -4.71       
C           58.13       23.04       -2.5        
S           59.3        25.33       -1.9        
C           57.91       24.25       -1.82       
C           74.02       20.54       -4.86       
C           73.36       21.26       -3.93       
C           73.4        20.33       -6.09       
C           72.2        21.04       -6.38       
C           71.56       21.79       -5.45       
C           72.15       21.85       -4.23       
N           71.38       20.89       -7.53       
C           70.19       21.56       -7.32       
C           70.26       22.26       -5.96       
O           69.25       21.48       -8.12       
C           71.89       20.49       -8.81       
C           69.29       23.08       -5.42       
C           67.81       23.04       -5.49       
C           67.31       24.1        -4.78       
N           68.3        24.77       -4.15       
C           69.53       24.24       -4.46       
C           66.89       22.16       -6.04       
O           70.61       24.56       -3.86       
C           68.32       26.13       -3.68       
H           71.65       22.45       -3.44       
H           73.86       19.77       -6.9        
H           73.67       21.36       -2.94       
H           65.67       24.96       -3.7        
H           67.3        21.26       -6.57       
H           64.97       21.45       -5.94       
H           72.81       19.91       -8.74       
H           71.22       19.72       -9.24       
H           71.93385    21.32308    -9.51154    
H           67.64       26.66       -4.28       
H           68.05626    26.32048    -2.63968    
H           69.3        26.59       -3.97       
C           65.57       22.26       -5.64       
C           65.97       24.22       -4.41       
C           65.08       23.22       -4.74       
C           81.26       17.77       -4.61       
S           79.97       17.63       -5.74       
C           80.91       18.59       -3.57       
C           79.53       19.02       -3.69       
C           78.91       18.54       -4.75       
N           78.66       19.85       -2.95       
C           77.48       19.81       -3.64       
C           77.61       19.01       -4.77       
C           78.93       20.66       -1.75       
H           77.94       21.08       -1.51       
H           79.58       21.5        -1.98       
H           79.25717    20.09811    -0.87516    
H           75.84       21.09       -2.69       
H           81.59       18.88       -2.81       
C           76.17       20.42       -3.51       
S           76.12       18.88       -5.6        
C           75.34       20.04       -4.55       
C           91.08       12.46       -6.8        
C           89.86       12.12       -7.4        
C           91.04       13.36       -5.76       
C           89.84       13.97       -5.44       
C           88.59       13.77       -6.15       
C           88.71       12.78       -7.19       
N           89.7        14.94       -4.48       
C           88.38       15.46       -4.47       
C           87.63       14.8        -5.63       
O           88.08       16.43       -3.83       
C           90.78       15.51       -3.66       
C           86.33       15.25       -6.01       
C           85.22       15.99       -5.33       
C           84.17       16.14       -6.33       
N           84.57       15.57       -7.51       
C           85.76       14.93       -7.38       
C           84.82       16.54       -4.05       
O           86.33       14.33       -8.27       
C           83.81       15.39       -8.72       
H           87.83       12.57       -7.84       
H           91.9        13.45       -5.14       
H           89.76       11.33       -8.22       
H           82.17       16.88       -6.9        
H           85.49       16.45       -3.24       
H           83.21       17.37       -2.86       
H           90.48       16.59       -3.56       
H           91.76       15.62       -4.07       
H           90.87643    14.98335    -2.71055    
H           82.72       15.3        -8.6        
H           84.03554    16.18302    -9.43299    
H           84.14       14.42       -9.09       
C           83.51       17.11       -3.87       
C           82.89       16.72       -6.13       
C           82.53       17.25       -4.86       
C           97.72       8.31        -6.63       
S           97.34       9.93        -6.06       
C           96.6        7.7         -7.24       
C           95.52       8.71        -7.41       
C           95.76       9.96        -6.78       
N           94.25       8.75        -7.93       
C           93.67       9.94        -7.55       
C           94.59       10.68       -6.89       
C           93.59       7.59        -8.43       
H           93.89       6.77        -7.85       
H           92.54       7.62        -8.33       
H           93.8753     7.39742     -9.46422    
H           91.48       9.91        -8.09       
H           96.59       6.68        -7.55       
C           92.31       10.44       -7.59       
S           93.83       12.2        -6.52       
C           92.23       11.66       -7.03       
C           105.83      2.96        -1.0        
C           105.15      2.27        -2.02       
C           105.54      4.27        -0.77       
C           104.58      4.9         -1.53       
C           103.88      4.2         -2.59       
C           104.18      2.88        -2.79       
N           104.2       6.23        -1.47       
C           103.16      6.42        -2.38       
C           102.89      5.15        -3.16       
O           102.61      7.56        -2.46       
C           104.47      7.24        -0.45       
C           101.85      5.2         -4.11       
C           101.07      6.24        -4.89       
C           100.11      5.56        -5.74       
N           100.37      4.19        -5.65       
C           101.3       3.88        -4.71       
C           101.04      7.57        -4.96       
O           101.48      2.74        -4.41       
C           99.63       3.16        -6.37       
H           103.71      2.34        -3.61       
H           106.11      4.93        -0.21       
H           105.26      1.18        -2.18       
H           98.48       5.66        -7.18       
H           101.81      8.1         -4.49       
H           99.99       9.26        -5.79       
H           104.13      8.25        -0.84       
H           105.56      7.26        -0.17       
H           103.90695   7.03066     0.45954     
H           100.13      2.24        -6.48       
H           98.63405    2.98553     -5.96289    
H           99.52       3.52        -7.39       
C           99.99       8.2         -5.57       
C           99.12       6.2         -6.47       
C           98.89       7.58        -6.25       
C           110.55      -1.53       3.28        
S           109.11      -1.99       2.37        
C           110.81      -0.17       3.28        
C           109.84      0.53        2.57        
C           108.85      -0.29       1.93        
N           109.52      1.86        2.28        
C           108.42      1.87        1.47        
C           108.02      0.57        1.19        
C           110.47      2.98        2.53        
H           109.86      3.89        2.54        
H           111.01      2.77        3.36        
H           111.13615   3.00104     1.66751     
H           107.82      3.87        0.84        
H           111.64      0.28        3.78        
C           107.69      2.8         0.72        
S           106.61      0.49        0.09        
C           106.75      2.21        -0.09       
C           117.23      -9.92       6.98        
C           116.94      -8.76       7.81        
C           116.61      -10.02      5.71        
C           115.86      -8.91       5.26        
C           115.6       -7.73       6.03        
C           116.07      -7.76       7.36        
N           115.22      -8.78       4.02        
C           114.51      -7.67       3.96        
C           114.73      -6.82       5.23        
O           113.68      -7.48       3.0         
C           115.08      -9.93       3.21        
C           114.14      -5.54       5.4         
C           113.05      -4.75       4.73        
C           112.91      -3.49       5.41        
N           113.72      -3.47       6.58        
C           114.48      -4.63       6.62        
C           112.28      -4.86       3.6         
O           115.32      -4.78       7.49        
C           113.64      -2.53       7.66        
H           115.84      -6.96       8.02        
H           116.81      -10.93      5.1         
H           117.36      -8.66       8.83        
H           112.02      -1.44       5.5         
H           112.34      -5.66       2.93        
H           111.07      -3.97       2.12        
H           114.19      -9.83       2.59        
H           114.76      -10.74      3.8         
H           115.99448   -10.17811   2.67124     
H           113.78      -1.47       7.31        
H           112.76826   -2.76054    8.27238     
H           114.55      -2.74       8.29        
C           111.57      -3.8        3.08        
C           112.14      -2.43       4.97        
C           111.36      -2.63       3.8         
C           121.45      -16.2       8.39        
S           120.83      -15.59      6.92        
C           121.24      -15.41      9.48        
C           120.41      -14.3       9.18        
C           120.16      -14.23      7.81        
N           119.91      -13.15      9.82        
C           119.25      -12.46      8.88        
C           119.29      -13.13      7.67        
C           120.1       -12.83      11.18       
H           119.51      -11.9       11.37       
H           121.13      -12.65      11.29       
H           119.71864   -13.59978   11.8509     
H           118.57      -10.33      9.58        
H           121.61      -15.58      10.47       
C           118.57      -11.16      8.8         
S           118.41      -12.32      6.41        
C           118.05      -11.0       7.51        
C           124.92      -26.99      9.25        
C           125.46      -26.0       10.06       
C           123.8       -26.58      8.51        
C           123.38      -25.23      8.41        
C           124.01      -24.21      9.18        
C           125.04      -24.64      10.07       
N           122.37      -24.67      7.65        
C           122.41      -23.3       7.74        
C           123.47      -22.91      8.79        
O           121.67      -22.61      7.01        
C           121.41      -25.41      6.83        
C           123.53      -21.59      9.28        
C           123.02      -20.29      8.79        
C           123.23      -19.34      9.8         
N           123.9       -19.92      10.84       
C           124.12      -21.27      10.68       
C           122.42      -19.79      7.62        
O           124.69      -21.96      11.51       
C           124.53      -19.15      11.92       
H           125.54      -23.92      10.71       
H           123.19      -27.2       8.01        
H           126.22      -26.25      10.75       
H           122.78      -17.39      10.61       
H           122.19      -20.44      6.74        
H           121.61      -18.04      6.45        
H           121.89      -26.04      6.07        
H           120.77      -24.76      6.28        
H           120.74385   -26.02006   7.44006     
H           123.82      -18.39      12.32       
H           125.36912   -18.54643   11.57405    
H           124.94      -19.8       12.68       
C           122.01      -18.39      7.44        
C           122.78      -18.0       9.7         
C           122.14      -17.5       8.52        
C           124.73      -34.55      10.34       
S           123.95      -33.69      9.01        
C           125.44      -33.81      11.18       
C           125.54      -32.52      10.72       
C           124.73      -32.25      9.59        
N           126.2       -31.41      11.16       
C           125.81      -30.4       10.35       
C           124.89      -30.87      9.37        
C           126.87      -31.18      12.47       
H           127.13      -30.15      12.53       
H           127.87      -31.57      12.55       
H           126.21204   -31.3874    13.3139     
H           126.41      -28.43      11.26       
H           126.13      -34.28      11.94       
C           125.98      -29.01      10.44       
S           124.28      -29.49      8.41        
C           125.26      -28.37      9.41        
C           121.94      -45.18      12.57       
C           121.02      -44.22      12.26       
C           123.28      -44.86      12.61       
C           123.69      -43.67      12.12       
C           122.78      -42.64      11.64       
C           121.46      -42.93      11.91       
N           124.99      -43.19      11.93       
C           125.0       -41.85      11.5        
C           123.55      -41.4       11.25       
O           126.03      -41.17      11.21       
C           126.12      -44.03      11.73       
C           123.25      -40.13      10.78       
C           124.0       -38.81      10.65       
C           123.07      -37.91      10.1        
N           121.86      -38.54      9.86        
C           121.85      -39.87      10.26       
C           125.25      -38.26      11.15       
O           120.84      -40.48      10.36       
C           120.65      -38.01      9.21        
H           120.68      -42.23      11.84       
H           124.07      -45.53      13.08       
H           119.97      -44.47      12.36       
H           122.62      -35.93      9.49        
H           125.95      -38.81      11.68       
H           126.5       -36.52      11.26       
H           127.01      -43.5       12.21       
H           125.99      -44.92      12.37       
H           126.274     -44.247     10.67298    
H           120.61      -36.89      9.32        
H           120.66429   -38.20999   8.1386      
H           119.81      -38.44      9.74        
C           125.5       -36.88      11.0        
C           123.32      -36.57      9.88        
C           124.53      -36.02      10.39       
C           118.78      -51.25      16.16       
S           118.12      -49.69      15.8        
C           119.97      -51.5       15.61       
C           120.35      -50.41      14.82       
C           119.56      -49.27      14.92       
N           121.47      -50.07      14.03       
C           121.38      -48.7       13.65       
C           120.22      -48.21      14.27       
C           122.58      -50.88      13.6        
H           123.22      -50.28      13.0        
H           122.23      -51.63      12.93       
H           123.10831   -51.35622   14.42595    
H           123.13      -47.83      12.65       
H           120.45      -52.47      15.75       
C           122.22      -47.65      13.17       
S           120.0       -46.51      13.89       
C           121.53      -46.46      13.09       
C           111.83      -58.15      21.55       
C           111.79      -56.81      21.66       
C           112.84      -58.68      20.86       
C           113.78      -57.83      20.29       
C           113.87      -56.42      20.42       
C           112.8       -55.92      21.24       
N           114.91      -58.24      19.57       
C           115.68      -57.18      19.1        
C           115.06      -55.99      19.66       
O           116.72      -57.37      18.43       
C           115.3       -59.57      19.22       
C           115.51      -54.62      19.48       
C           116.58      -54.03      18.58       
C           116.48      -52.62      18.74       
N           115.58      -52.3       19.78       
C           115.06      -53.43      20.32       
C           117.51      -54.42      17.62       
O           114.33      -53.36      21.36       
C           115.07      -50.98      20.13       
H           112.7       -54.92      21.46       
H           112.96      -59.74      20.74       
H           110.89      -56.33      22.18       
H           116.85      -50.69      17.97       
H           117.68      -55.46      17.45       
H           119.03      -53.97      16.17       
H           114.52      -60.3       19.34       
H           115.58      -59.55      18.17       
H           116.053     -60.01043   19.87354    
H           114.0       -50.88      20.03       
H           115.54641   -50.59291   21.03072    
H           115.34      -50.36      19.32       
C           118.26      -53.55      16.84       
C           117.15      -51.71      17.94       
C           118.04      -52.14      16.98       
C           105.79      -61.86      25.01       
S           105.9       -60.17      24.55       
C           106.89      -62.55      24.57       
C           107.89      -61.71      24.02       
C           107.51      -60.36      23.9        
N           109.15      -61.98      23.47       
C           109.54      -60.77      22.87       
C           108.65      -59.76      23.22       
C           110.02      -63.16      23.66       
H           110.87      -62.94      22.95       
H           109.68      -64.12      23.28       
H           110.34903   -63.22438   24.69716    
H           111.46      -60.9       21.83       
H           107.01      -63.7       24.8        
C           110.69      -60.29      22.17       
S           109.27      -58.26      22.7        
C           110.72      -58.95      22.07       
H           16.0        47.98       4.58        
H           105.09      -62.25      25.75       
