512

C           24.25       34.74       5.38        
C           23.13       34.36       4.61        
C           24.2        35.83       6.15        
C           22.98       36.53       6.26        
C           21.86       36.21       5.55        
C           21.93       35.0        4.78        
N           22.72       37.68       7.02        
C           21.39       38.12       6.97        
C           20.7        37.16       6.0         
O           20.94       39.15       7.51        
C           23.72       38.67       7.34        
C           19.32       37.21       5.74        
C           18.17       37.95       6.38        
C           17.05       37.63       5.54        
N           17.39       36.88       4.47        
C           18.73       36.55       4.5         
C           17.92       38.67       7.63        
O           19.2        35.92       3.63        
C           16.53       36.69       3.34        
H           21.07       34.65       4.23        
H           25.08       36.17       6.78        
H           23.17       33.49       3.93        
H           15.0        37.77       5.18        
H           18.73       38.87       8.28        
H           16.44       39.39       8.95        
H           24.74       38.41       6.96        
H           23.48       39.6        6.86        
H           23.77569    38.74657    8.42588     
H           16.14       37.65       3.13        
H           15.79039    35.90773    3.51068     
H           17.13       36.5        2.48        
C           16.56       38.95       7.94        
C           15.79       38.11       5.77        
C           15.53       38.77       7.0         
C           31.19       31.02       4.74        
S           30.86       32.71       5.14        
C           30.03       30.42       4.5         
C           28.83       31.16       4.59        
C           29.11       32.5        4.95        
N           27.48       31.02       4.26        
C           26.85       32.21       4.64        
C           27.84       33.13       5.15        
C           26.79       29.79       3.82        
H           25.74       30.09       3.51        
H           26.61       29.06       4.62        
H           27.33637    29.3487     2.98643     
H           24.67       32.16       4.46        
H           29.99       29.33       4.23        
C           25.56       32.69       4.76        
S           27.06       34.51       5.77        
C           25.46       33.97       5.25        
C           41.25       27.15       2.21        
C           40.94       28.46       2.14        
C           40.3        26.18       2.64        
C           39.2        26.71       3.29        
C           38.86       28.06       3.37        
C           39.76       28.89       2.69        
N           38.2        25.96       3.93        
C           37.16       26.74       4.34        
C           37.47       28.24       3.97        
O           36.2        26.29       4.84        
C           38.08       24.48       4.0         
C           36.59       29.26       4.17        
C           35.12       29.4        4.36        
C           34.88       30.82       4.47        
N           36.09       31.54       4.45        
C           37.12       30.69       4.22        
C           34.06       28.55       4.4         
O           38.31       31.02       4.39        
C           36.18       32.71       5.37        
H           39.52       29.9        2.71        
H           40.56       25.11       2.7         
H           41.57       29.21       1.85        
H           33.4        32.43       4.34        
H           34.33       27.49       4.24        
H           32.03       28.31       4.71        
H           39.07       24.12       3.87        
H           37.76       24.15       5.02        
H           37.40635    24.0309     3.27021     
H           37.13       32.65       5.84        
H           36.00133    33.64621    4.84115     
H           35.43       32.53       6.19        
C           32.83       29.06       4.6         
C           33.56       31.34       4.38        
C           32.53       30.43       4.51        
C           47.94       25.76       -1.55       
S           47.25       27.29       -0.9        
C           47.28       24.7        -1.04       
C           46.06       25.07       -0.49       
C           45.95       26.42       -0.17       
N           44.94       24.36       0.08        
C           44.19       25.37       0.76        
C           44.76       26.63       0.58        
C           44.46       23.09       -0.31       
H           43.52       22.9        0.25        
H           45.16       22.33       -0.02       
H           44.38857    23.02571    -1.39576    
H           42.27       24.54       1.61        
H           47.62       23.66       -1.17       
C           42.95       25.42       1.48        
S           43.79       27.88       1.27        
C           42.58       26.72       1.79        
C           57.82       25.49       -7.01       
C           57.15       24.34       -6.69       
C           57.32       26.72       -6.52       
C           56.22       26.68       -5.73       
C           55.45       25.5        -5.42       
C           55.98       24.28       -5.9        
N           55.58       27.72       -5.13       
C           54.36       27.39       -4.49       
C           54.19       25.93       -4.74       
O           53.57       28.2        -4.12       
C           56.12       29.09       -5.06       
C           53.01       25.28       -4.35       
C           51.76       25.63       -3.57       
C           50.77       24.62       -3.7        
N           51.31       23.59       -4.5        
C           52.64       23.88       -4.93       
C           51.35       26.73       -2.83       
O           53.23       23.1        -5.65       
C           50.5        22.72       -5.34       
H           55.49       23.33       -5.68       
H           57.75       27.71       -6.75       
H           57.45       23.43       -7.15       
H           48.84       23.81       -3.27       
H           52.04       27.5        -2.61       
H           49.9        27.52       -1.55       
H           57.13       29.18       -5.53       
H           55.47       29.64       -5.63       
H           56.23285    29.44972    -4.03727    
H           50.7        22.73       -6.43       
H           50.50705    21.68386    -5.00167    
H           49.53       23.05       -5.24       
C           50.13       26.72       -2.14       
C           49.52       24.67       -3.11       
C           49.23       25.69       -2.19       
C           64.33       25.79       -11.04      
S           63.65       26.87       -9.85       
C           63.29       25.05       -11.7       
C           62.11       25.19       -10.93      
C           62.21       26.06       -9.87       
N           60.94       24.56       -10.84      
C           60.29       25.03       -9.69       
C           61.02       26.03       -9.11       
C           60.49       23.39       -11.61      
H           59.38       23.38       -11.52      
H           60.82       22.38       -11.28      
H           60.65544    23.55544    -12.67459   
H           58.32       23.92       -9.31       
H           63.46       24.27       -12.43      
C           59.1        24.69       -9.01       
S           60.22       26.65       -7.76       
C           58.9        25.54       -7.99       
C           75.19       25.82       -11.92      
C           74.49       26.83       -11.31      
C           74.49       24.94       -12.71      
C           73.08       25.03       -12.85      
C           72.33       26.0        -12.08      
C           73.09       26.9        -11.28      
N           72.24       24.29       -13.65      
C           70.93       24.7        -13.47      
C           70.95       25.85       -12.46      
O           69.97       24.15       -14.02      
C           72.64       23.2        -14.58      
C           69.87       26.58       -12.09      
C           68.46       26.14       -11.97      
C           67.78       27.17       -11.36      
N           68.65       28.3        -11.18      
C           69.87       28.0        -11.61      
C           67.72       24.92       -12.18      
O           70.79       28.81       -11.41      
C           68.3        29.62       -10.67      
H           72.71       27.61       -10.65      
H           75.02       24.08       -13.09      
H           74.97       27.61       -10.77      
H           65.87       27.96       -10.64      
H           68.16       24.05       -12.6       
H           65.79       23.9        -12.18      
H           73.7        23.04       -14.54      
H           72.28       22.32       -14.16      
H           72.42919    23.41783    -15.627     
H           67.35       29.92       -10.99      
H           68.24989    29.57705    -9.582      
H           68.97       30.38       -11.06      
C           66.36       24.82       -12.0       
C           66.39       27.1        -11.06      
C           65.74       25.9        -11.38      
C           82.62       23.83       -10.1       
S           81.33       22.91       -10.9       
C           82.12       25.0        -9.58       
C           80.77       25.28       -10.04      
C           80.27       24.28       -10.85      
N           79.86       26.33       -10.03      
C           78.79       26.0        -10.85      
C           78.91       24.65       -11.26      
C           79.9        27.55       -9.27       
H           78.91       27.85       -9.18       
H           80.54       28.26       -9.77       
H           80.25921    27.42322    -8.24873    
H           77.2        27.53       -10.89      
H           82.75       25.76       -9.06       
C           77.54       26.53       -11.17      
S           77.46       24.11       -12.11      
C           76.65       25.63       -11.71      
C           91.58       17.35       -8.46       
C           90.69       17.05       -9.44       
C           91.66       18.63       -7.93       
C           90.71       19.48       -8.44       
C           89.61       19.2        -9.41       
C           89.72       17.92       -9.95       
N           90.58       20.77       -8.02       
C           89.42       21.33       -8.43       
C           88.79       20.42       -9.48       
O           89.19       22.5        -8.15       
C           91.29       21.47       -6.94       
C           87.58       20.75       -10.07      
C           86.48       21.75       -9.84       
C           85.44       21.41       -10.78      
N           85.73       20.29       -11.59      
C           86.98       19.89       -11.18      
C           86.16       22.9        -8.99       
O           87.59       19.06       -11.8       
C           84.7        19.38       -12.11      
H           89.0        17.5        -10.58      
H           92.38       18.92       -7.13       
H           90.75       16.04       -9.92       
H           83.4        21.78       -11.6       
H           86.83       23.29       -8.24       
H           84.81       24.39       -8.34       
H           91.81       20.8        -6.32       
H           90.62       22.15       -6.41       
H           92.08475    22.1058     -7.33015    
H           83.95       19.28       -11.42      
H           84.38415    19.65996    -13.11497   
H           85.15       18.41       -12.19      
C           84.97       23.62       -9.11       
C           84.19       22.1        -10.88      
C           83.99       23.15       -10.02      
C           96.86       12.38       -5.36       
S           96.88       14.17       -5.46       
C           95.62       11.88       -5.77       
C           94.79       12.92       -6.28       
C           95.32       14.19       -6.19       
N           93.53       12.92       -6.83       
C           93.27       14.24       -7.22       
C           94.33       15.05       -6.81       
C           92.75       11.76       -7.02       
H           92.37       11.48       -6.02       
H           91.79       12.13       -7.42       
H           93.22771    11.14882    -7.78574    
H           91.27       14.53       -8.1        
H           95.39       10.86       -5.71       
C           92.22       14.96       -7.78       
S           94.07       16.71       -7.26       
C           92.5        16.27       -7.94       
C           104.77      7.66        1.26        
C           104.1       6.96        0.24        
C           104.63      9.08        1.23        
C           103.77      9.66        0.24        
C           102.99      8.89        -0.76       
C           103.19      7.49        -0.61       
N           103.48      10.99       -0.11       
C           102.59      11.15       -1.2        
C           102.04      9.78        -1.53       
O           102.25      12.3        -1.54       
C           103.77      12.1        0.7         
C           101.08      9.6         -2.54       
C           100.07      10.49       -3.14       
C           99.38       9.8         -4.23       
N           100.01      8.55        -4.4        
C           100.92      8.26        -3.37       
C           99.41       11.68       -2.69       
O           101.66      7.26        -3.48       
C           99.58       7.64        -5.4        
H           102.55      6.83        -1.17       
H           105.11      9.69        1.98        
H           104.18      5.87        0.24        
H           97.95       9.92        -5.97       
H           99.82       12.23       -1.87       
H           98.0        13.24       -3.16       
H           103.98      12.93       0.07        
H           104.69      11.93       1.27        
H           102.95261   12.33661    1.38116     
H           98.53       7.64        -5.53       
H           100.15799   7.75983     -6.31633    
H           99.89       6.65        -4.99       
C           98.4        12.24       -3.47       
C           98.37       10.39       -5.04       
C           97.91       11.67       -4.62       
C           109.52      3.14        5.49        
S           108.98      3.07        3.83        
C           108.71      3.99        6.25        
C           107.92      4.85        5.37        
C           108.05      4.51        4.03        
N           106.89      5.81        5.5         
C           106.48      6.11        4.22        
C           107.26      5.41        3.31        
C           106.48      6.57        6.71        
H           105.99      7.47        6.46        
H           105.83      6.07        7.4         
H           107.33127   6.68543     7.38091     
H           104.88      7.67        4.15        
H           108.65      3.91        7.32        
C           105.6       7.06        3.65        
S           106.75      5.79        1.68        
C           105.68      7.07        2.23        
C           116.19      -4.96       9.79        
C           116.29      -3.59       10.2        
C           115.37      -5.23       8.66        
C           114.57      -4.22       8.08        
C           114.59      -2.86       8.54        
C           115.56      -2.56       9.57        
N           113.64      -4.41       7.04        
C           113.03      -3.21       6.75        
C           113.57      -2.15       7.72        
O           112.05      -3.16       6.02        
C           113.23      -5.67       6.51        
C           113.06      -0.8        7.85        
C           112.25      0.1         6.99        
C           111.89      1.28        7.74        
N           112.65      1.24        8.84        
C           113.39      0.13        8.97        
C           111.66      -0.02       5.72        
O           114.03      -0.08       9.93        
C           112.7       2.32        9.84        
H           115.67      -1.58       9.95        
H           115.3       -6.24       8.26        
H           116.91      -3.38       11.07       
H           110.88      3.21        7.84        
H           111.84      -0.86       5.14        
H           110.29      0.66        4.3         
H           112.25      -5.58       6.12        
H           113.22      -6.37       7.32        
H           113.91021   -5.92245    5.69656     
H           112.61      3.3         9.35        
H           111.94045   2.26575     10.6199     
H           113.67      2.24        10.31       
C           110.69      0.93        5.25        
C           111.05      2.26        7.27        
C           110.39      2.08        5.99        
C           118.89      -11.63      12.79       
S           118.15      -11.28      11.26       
C           119.07      -10.53      13.59       
C           118.46      -9.33       12.99       
C           118.06      -9.57       11.67       
N           118.19      -8.0        13.39       
C           117.68      -7.38       12.2        
C           117.59      -8.34       11.15       
C           118.09      -7.48       14.78       
H           117.55      -6.61       14.8        
H           119.09      -7.25       15.1        
H           117.56762   -8.17412    15.43834    
H           117.17      -5.17       12.4        
H           119.3       -10.67      14.67       
C           117.17      -6.07       11.79       
S           116.96      -7.57       9.65        
C           116.82      -6.06       10.46       
C           119.88      -22.61      14.45       
C           120.59      -21.72      15.31       
C           119.06      -22.07      13.41       
C           119.12      -20.74      13.16       
C           119.83      -19.83      13.89       
C           120.46      -20.31      15.09       
N           118.52      -20.14      12.04       
C           118.76      -18.73      12.1        
C           119.63      -18.49      13.35       
O           118.2       -17.98      11.29       
C           118.18      -20.77      10.8        
C           119.97      -17.2       13.7        
C           119.39      -15.86      13.45       
C           120.21      -14.9       14.06       
N           121.27      -15.47      14.73       
C           121.15      -16.86      14.61       
C           118.4       -15.35      12.64       
O           121.95      -17.61      15.11       
C           122.52      -14.88      15.02       
H           120.96      -19.66      15.79       
H           118.48      -22.69      12.71       
H           121.07      -22.1       16.23       
H           120.85      -12.88      14.35       
H           117.64      -15.9       12.1        
H           117.38      -13.72      11.97       
H           118.77      -21.71      10.58       
H           118.57      -20.11      9.96        
H           117.10224   -20.89516   10.6957     
H           122.47      -13.93      15.55       
H           123.07911   -14.68395   14.10509    
H           123.09      -15.54      15.65       
C           118.25      -13.97      12.51       
C           120.1       -13.55      13.95       
C           119.04      -13.05      13.2        
C           119.76      -30.33      15.64       
S           118.44      -29.22      15.37       
C           120.99      -29.69      15.81       
C           120.93      -28.27      15.62       
C           119.57      -27.86      15.32       
N           121.77      -27.17      15.59       
C           120.91      -26.07      15.25       
C           119.6       -26.49      15.06       
C           123.19      -27.04      15.88       
H           123.63      -26.19      15.37       
H           123.63      -27.98      15.53       
H           123.41856   -26.98286   16.94423    
H           122.09      -24.07      15.19       
H           121.88      -30.25      15.89       
C           121.13      -24.68      15.03       
S           118.61      -25.17      14.57       
C           119.98      -24.05      14.75       
C           118.65      -41.15      18.34       
C           119.88      -40.49      18.25       
C           117.51      -40.41      17.86       
C           117.66      -39.12      17.36       
C           118.93      -38.46      17.26       
C           120.07      -39.13      17.82       
N           116.62      -38.28      17.02       
C           117.2       -37.06      16.59       
C           118.72      -37.13      16.72       
O           116.43      -36.24      16.08       
C           115.19      -38.46      17.35       
C           119.46      -36.04      16.4        
C           119.25      -34.63      16.13       
C           120.49      -34.07      15.84       
N           121.47      -35.02      15.81       
C           120.98      -36.22      16.18       
C           118.19      -33.68      16.23       
O           121.68      -37.18      16.06       
C           122.52      -34.92      14.85       
H           121.01      -38.68      17.72       
H           116.56      -40.87      18.0        
H           120.7       -41.04      18.65       
H           121.68      -32.31      15.59       
H           117.18      -33.94      16.55       
H           117.51      -31.67      16.09       
H           114.57      -38.39      16.49       
H           115.02      -39.4       17.86       
H           114.94294   -37.65344   18.0403     
H           123.21      -35.72      15.03       
H           122.06761   -35.01596   13.86297    
H           122.99      -33.96      14.98       
C           118.35      -32.32      16.02       
C           120.66      -32.66      15.68       
C           119.58      -31.79      15.78       
C           117.75      -48.1       21.93       
S           116.77      -46.63      22.01       
C           118.77      -47.9       21.05       
C           118.85      -46.58      20.5        
C           117.79      -45.76      20.97       
N           119.64      -45.91      19.59       
C           119.18      -44.64      19.49       
C           117.97      -44.58      20.18       
C           120.82      -46.5       19.0        
H           121.33      -45.73      18.35       
H           120.53      -47.37      18.3        
H           121.52662   -46.87116   19.74231    
H           120.49      -43.32      18.35       
H           119.33      -48.82      20.77       
C           119.53      -43.42      18.86       
S           117.32      -42.95      19.95       
C           118.62      -42.45      18.94       
C           113.8       -58.31      24.47       
C           115.06      -58.06      24.11       
C           112.91      -57.24      24.39       
C           113.39      -55.93      24.25       
C           114.76      -55.68      24.05       
C           115.59      -56.81      23.9        
N           112.66      -54.69      24.37       
C           113.48      -53.61      24.07       
C           114.84      -54.18      23.8        
O           113.08      -52.44      24.23       
C           111.18      -54.69      24.37       
C           115.92      -53.32      23.63       
C           116.05      -51.86      23.25       
C           117.47      -51.53      23.28       
N           118.15      -52.65      23.76       
C           117.32      -53.74      23.93       
C           115.25      -50.77      22.85       
O           117.8       -54.83      24.33       
C           119.41      -52.54      24.48       
H           116.59      -56.71      23.56       
H           111.89      -57.47      24.69       
H           115.72      -58.89      23.91       
H           119.09      -50.1       23.01       
H           114.19      -50.86      22.74       
H           115.14      -48.8       22.14       
H           110.81      -55.67      24.61       
H           110.84      -54.07      25.1        
H           110.7635    -54.41689   23.40044    
H           119.37      -53.18      25.33       
H           120.26428   -52.62814   23.80878    
H           119.43      -51.52      24.79       
C           115.83      -49.6       22.51       
C           118.06      -50.3       22.95       
C           117.17      -49.34      22.48       
C           112.11      -65.82      25.44       
S           113.56      -64.89      25.78       
C           111.11      -65.02      24.97       
C           111.51      -63.67      24.71       
C           112.8       -63.43      25.18       
N           111.02      -62.47      24.14       
C           112.03      -61.56      24.33       
C           113.14      -62.06      25.01       
C           109.82      -62.21      23.39       
H           109.67      -61.15      23.2        
H           108.94      -62.36      24.0        
H           109.73422   -62.79615   22.47503    
H           111.31      -59.5       23.82       
H           110.08      -65.42      24.74       
C           112.1       -60.15      24.25       
S           114.42      -60.94      25.26       
C           113.29      -59.69      24.71       
H           14.51       38.88       7.35        
H           111.92      -66.92      25.73       
