512

C           26.09       27.4        17.1        
C           26.16       28.78       16.94       
C           24.81       26.91       17.4        
C           23.7        27.78       17.63       
C           23.82       29.17       17.66       
C           25.08       29.62       17.31       
N           22.37       27.39       17.84       
C           21.62       28.52       18.17       
C           22.43       29.72       17.87       
O           20.41       28.44       18.52       
C           21.85       26.04       18.08       
C           21.93       31.06       17.91       
C           20.61       31.7        18.24       
C           20.76       33.16       18.03       
N           22.02       33.37       17.48       
C           22.76       32.26       17.49       
C           19.3        31.4        18.6        
O           23.89       32.31       17.08       
C           22.53       34.65       17.17       
H           25.28       30.65       17.43       
H           24.7        25.79       17.4        
H           27.09       29.26       16.52       
H           19.99       35.19       18.14       
H           19.02       30.32       18.61       
H           17.33       32.07       19.11       
H           20.98       26.02       17.48       
H           22.61       25.34       17.7        
H           21.63564    25.80347    19.12221    
H           22.01       35.35       17.72       
H           22.48628    34.80301    16.09168    
H           23.51       34.81       17.51       
C           18.32       32.41       18.89       
C           19.79       34.12       18.41       
C           18.57       33.73       18.9        
C           32.56       23.74       14.75       
S           32.21       25.46       14.8        
C           31.57       23.02       15.29       
C           30.43       23.77       15.73       
C           30.66       25.13       15.53       
N           29.17       23.56       16.33       
C           28.6        24.79       16.5        
C           29.41       25.78       15.91       
C           28.58       22.33       16.91       
H           27.48       22.48       17.14       
H           29.1        22.14       17.9        
H           28.8312     21.48568    16.26804    
H           26.55       24.75       17.42       
H           31.59       21.94       15.41       
C           27.35       25.28       16.95       
S           28.64       27.31       15.98       
C           27.24       26.62       16.79       
C           41.12       20.68       8.33        
C           40.99       21.94       8.87        
C           40.38       19.63       8.89        
C           39.42       20.02       9.82        
C           39.11       21.31       10.28       
C           39.99       22.27       9.78        
N           38.69       19.1        10.51       
C           37.76       19.74       11.36       
C           38.08       21.26       11.31       
O           36.92       19.09       12.01       
C           39.25       17.82       10.92       
C           37.46       22.28       12.08       
C           36.15       22.35       12.76       
C           36.05       23.63       13.38       
N           37.28       24.32       13.2        
C           38.13       23.61       12.38       
C           35.03       21.56       12.89       
O           39.27       23.85       12.24       
C           37.68       25.51       13.92       
H           39.95       23.27       10.02       
H           40.54       18.6        8.61        
H           41.54       22.7        8.4         
H           34.87       25.03       14.66       
H           34.92       20.69       12.28       
H           33.06       21.26       13.61       
H           38.46       17.11       10.96       
H           40.03       17.44       10.22       
H           39.6574     17.89596    11.92814    
H           38.65       25.33       14.31       
H           37.7854     26.38127    13.27357    
H           36.92       25.66       14.63       
C           33.9        21.97       13.54       
C           34.97       24.06       14.15       
C           33.8        23.25       14.12       
C           46.71       20.23       3.04        
S           46.24       21.59       4.04        
C           45.96       19.1        3.17        
C           44.94       19.26       4.11        
C           44.99       20.53       4.7         
N           43.87       18.55       4.65        
C           43.32       19.41       5.61        
C           44.02       20.55       5.69        
C           43.25       17.37       4.17        
H           42.33       17.15       4.66        
H           43.88       16.5        4.41        
H           43.07205    17.40559    3.09521     
H           41.39       18.58       6.38        
H           46.21       18.25       2.6         
C           42.13       19.39       6.43        
S           43.42       21.63       6.93        
C           42.13       20.51       7.33        
C           55.95       22.07       -3.1        
C           55.48       20.81       -2.85       
C           55.22       23.12       -2.64       
C           53.98       22.95       -2.03       
C           53.5        21.65       -1.7        
C           54.3        20.53       -2.17       
N           53.07       23.93       -1.54       
C           52.02       23.34       -0.88       
C           52.21       21.82       -1.02       
O           51.11       24.01       -0.33       
C           53.58       25.22       -1.15       
C           51.24       20.92       -0.55       
C           50.14       21.0        0.43        
C           49.31       19.83       0.36        
N           49.91       18.95       -0.54       
C           51.05       19.51       -1.08       
C           49.76       21.84       1.45        
O           51.63       18.99       -2.0        
C           49.51       17.58       -0.93       
H           54.12       19.49       -1.96       
H           55.5        24.05       -3.06       
H           56.04       19.99       -3.1        
H           47.72       18.51       0.9         
H           50.13       22.81       1.58        
H           48.37       22.36       2.91        
H           54.52       25.32       -1.73       
H           52.79       25.99       -1.39       
H           53.8671     25.17098    -0.09963    
H           49.8        17.34       -1.97       
H           49.88845    16.83685    -0.22814    
H           48.43       17.64       -0.99       
C           48.63       21.59       2.21        
C           48.22       19.48       1.09        
C           47.84       20.4        2.07        
C           63.49       22.56       -5.21       
S           62.67       21.13       -4.5        
C           62.67       23.59       -5.5        
C           61.34       23.3        -5.21       
C           61.17       22.04       -4.57       
N           60.14       23.92       -5.31       
C           59.18       23.15       -4.64       
C           59.8        21.93       -4.27       
C           59.99       25.27       -5.72       
H           58.92       25.59       -5.8        
H           60.3        25.36       -6.68       
H           60.57069    25.96829    -5.11726    
H           57.23       24.26       -4.43       
H           63.01       24.55       -5.98       
C           57.81       23.37       -4.27       
S           58.54       20.97       -3.53       
C           57.32       22.23       -3.69       
C           74.54       23.53       -5.01       
C           73.82       23.81       -6.2        
C           73.84       23.29       -3.83       
C           72.45       23.27       -3.85       
C           71.77       23.5        -5.1        
C           72.43       23.82       -6.22       
N           71.55       22.92       -2.88       
C           70.25       22.93       -3.33       
C           70.32       23.24       -4.84       
O           69.38       22.74       -2.49       
C           71.89       22.54       -1.54       
C           69.12       23.33       -5.54       
C           67.73       22.87       -5.34       
C           66.94       23.55       -6.27       
N           67.64       24.39       -7.09       
C           68.98       24.15       -6.82       
C           67.18       21.98       -4.52       
O           69.76       24.62       -7.63       
C           67.09       25.27       -8.05       
H           71.88       24.06       -7.12       
H           74.4        23.13       -2.93       
H           74.49       24.1        -7.04       
H           65.0        24.2        -6.74       
H           67.71       21.44       -3.86       
H           65.29       21.1        -3.72       
H           72.88       22.85       -1.24       
H           71.2        23.0        -0.86       
H           71.89       21.4552     -1.43365    
H           66.25       24.75       -8.5        
H           66.75369    26.20021    -7.59205    
H           67.9        25.5        -8.74       
C           65.75       21.8        -4.51       
C           65.57       23.52       -6.2        
C           64.96       22.53       -5.37       
C           82.19       23.74       -6.26       
S           80.89       23.05       -7.27       
C           81.74       24.48       -5.21       
C           80.3        24.23       -5.0        
C           79.75       23.62       -6.11       
N           79.39       24.52       -4.03       
C           78.2        24.04       -4.51       
C           78.4        23.55       -5.79       
C           79.53       25.18       -2.75       
H           78.63       25.01       -2.16       
H           79.7        26.25       -2.98       
H           80.45897    24.88664    -2.26107    
H           76.62       24.51       -3.08       
H           82.38       24.97       -4.52       
C           76.85       24.05       -4.01       
S           76.85       23.07       -6.51       
C           76.03       23.65       -5.01       
C           92.16       19.19       -8.59       
C           91.23       19.31       -9.55       
C           91.93       19.65       -7.3        
C           90.77       20.27       -7.0        
C           89.81       20.36       -7.99       
C           90.09       19.98       -9.27       
N           90.34       20.68       -5.78       
C           89.06       21.17       -5.92       
C           88.68       21.12       -7.35       
O           88.48       21.66       -4.97       
C           91.16       20.58       -4.56       
C           87.42       21.65       -7.81       
C           86.22       22.28       -7.16       
C           85.33       22.69       -8.16       
N           85.9        22.32       -9.39       
C           87.16       21.89       -9.35       
C           85.7        22.49       -5.81       
O           87.78       21.62       -10.4       
C           85.2        22.27       -10.61      
H           89.33       20.01       -9.97       
H           92.65       19.45       -6.54       
H           91.42       18.98       -10.5       
H           83.29       23.35       -8.72       
H           86.18       22.05       -4.98       
H           84.15       23.24       -4.51       
H           91.87       19.77       -4.68       
H           90.48       20.5        -3.68       
H           91.79421    21.46363    -4.48874    
H           84.12       21.96       -10.39      
H           85.27029    23.24007    -11.10206   
H           85.63       21.41       -11.17      
C           84.48       23.16       -5.54       
C           84.03       23.17       -7.89       
C           83.6        23.45       -6.59       
C           99.04       15.64       -9.91       
S           98.62       17.01       -8.96       
C           97.93       15.09       -10.5       
C           96.74       15.94       -10.26      
C           96.97       16.95       -9.38       
N           95.46       15.96       -10.64      
C           94.8        16.97       -9.88       
C           95.75       17.7        -9.16       
C           94.84       15.12       -11.6       
H           95.68       14.91       -12.28      
H           94.65       14.21       -11.03      
H           94.03481    15.57203    -12.17917   
H           92.64       16.87       -10.11      
H           97.95       14.15       -11.05      
C           93.47       17.38       -9.69       
S           94.96       18.93       -8.27       
C           93.37       18.54       -9.02       
C           109.3       11.65       -8.26       
C           108.27      10.86       -8.77       
C           109.16      13.01       -8.35       
C           108.0       13.52       -8.92       
C           106.89      12.73       -9.29       
C           107.06      11.36       -9.2        
N           107.75      14.82       -9.14       
C           106.41      15.02       -9.33       
C           105.72      13.67       -9.55       
O           105.92      16.15       -9.33       
C           108.68      15.91       -9.08       
C           104.42      13.52       -9.91       
C           103.19      14.31       -9.84       
C           102.07      13.58       -10.4       
N           102.5       12.34       -10.9       
C           103.88      12.26       -10.61      
C           102.8       15.54       -9.26       
O           104.58      11.38       -11.06      
C           101.72      11.18       -11.31      
H           106.29      10.64       -9.43       
H           109.9       13.7        -8.04       
H           108.4       9.81        -8.62       
H           99.93       13.37       -10.77      
H           103.51      16.15       -8.78       
H           101.3       16.93       -8.84       
H           109.1       15.95       -8.13       
H           108.09      16.78       -9.22       
H           109.42448   15.78476    -9.86623    
H           100.75      11.16       -10.75      
H           101.49552   11.20806    -12.37627   
H           102.32      10.26       -11.07      
C           101.47      15.94       -9.32       
C           100.74      14.0        -10.48      
C           100.43      15.23       -9.96       
C           115.07      7.34        -5.39       
S           113.33      7.08        -5.48       
C           115.47      8.47        -6.01       
C           114.36      9.31        -6.34       
C           113.1       8.71        -6.05       
N           114.06      10.59       -6.9        
C           112.7       10.68       -7.08       
C           112.06      9.59        -6.53       
C           114.98      11.67       -7.14       
H           114.47      12.59       -6.88       
H           115.79      11.73       -6.45       
H           115.24759   11.64183    -8.19627    
H           111.96      12.51       -8.14       
H           116.46      8.67        -6.22       
C           111.76      11.58       -7.61       
S           110.38      9.49        -6.86       
C           110.51      11.01       -7.68       
C           119.66      -2.54       -3.11       
C           120.16      -1.37       -2.46       
C           118.72      -2.43       -4.12       
C           118.37      -1.15       -4.56       
C           118.79      0.03        -3.94       
C           119.68      -0.17       -2.86       
N           117.47      -0.84       -5.64       
C           117.39      0.49        -5.69       
C           118.17      1.21        -4.61       
O           116.91      0.97        -6.71       
C           116.53      -1.75       -6.19       
C           118.1       2.59        -4.36       
C           117.28      3.64        -4.85       
C           117.7       4.82        -4.19       
N           118.87      4.63        -3.49       
C           119.11      3.34        -3.55       
C           116.3       3.81        -5.79       
O           120.18      2.85        -3.2        
C           119.82      5.56        -2.95       
H           120.02      0.67        -2.32       
H           118.45      -3.28       -4.64       
H           120.99      -1.39       -1.77       
H           117.22      6.89        -3.78       
H           116.09      2.98        -6.41       
H           114.68      5.02        -6.59       
H           115.65      -1.22       -6.59       
H           116.14      -2.45       -5.41       
H           116.96182   -2.33947    -6.9988     
H           120.15      6.23        -3.71       
H           119.39188   6.22981     -2.20423    
H           120.66      4.98        -2.62       
C           115.53      4.99        -5.9        
C           116.92      6.01        -4.28       
C           115.85      6.1         -5.16       
C           121.91      -9.95       -2.33       
S           120.6       -9.21       -3.19       
C           122.67      -9.1        -1.56       
C           122.16      -7.71       -1.7        
C           121.01      -7.65       -2.55       
N           122.42      -6.39       -1.3        
C           121.51      -5.54       -1.95       
C           120.56      -6.32       -2.64       
C           123.61      -5.96       -0.58       
H           124.01      -4.96       -0.92       
H           124.46      -6.61       -0.76       
H           123.37983   -6.00316    0.48455     
H           121.98      -3.41       -1.68       
H           123.56      -9.43       -0.92       
C           121.31      -4.16       -2.09       
S           119.32      -5.32       -3.31       
C           120.17      -3.85       -2.77       
C           120.84      -21.02      -0.86       
C           121.02      -20.12      0.16        
C           120.77      -20.56      -2.19       
C           120.98      -19.22      -2.49       
C           121.35      -18.32      -1.44       
C           121.32      -18.84      -0.11       
N           120.89      -18.53      -3.66       
C           121.13      -17.18      -3.47       
C           121.38      -16.96      -2.0        
O           120.98      -16.37      -4.35       
C           121.03      -19.14      -5.0        
C           121.71      -15.7       -1.52       
C           121.71      -14.3       -2.01       
C           122.25      -13.46      -1.07       
N           122.53      -14.22      0.06        
C           122.39      -15.61      -0.15       
C           121.21      -13.59      -3.16       
O           122.83      -16.45      0.6         
C           123.0       -13.67      1.33        
H           121.46      -18.19      0.73        
H           120.51      -21.2       -3.01       
H           121.02      -20.5       1.2         
H           122.74      -11.45      -0.28       
H           120.94      -14.14      -4.03       
H           120.97      -11.67      -4.16       
H           121.8       -19.93      -4.92       
H           121.43      -18.43      -5.72       
H           120.077     -19.45076   -5.42816    
H           122.37      -12.85      1.6         
H           124.0628    -13.44434   1.41735     
H           122.82      -14.46      2.05        
C           121.3       -12.2       -3.26       
C           122.33      -12.07      -1.15       
C           121.86      -11.41      -2.25       
C           119.87      -28.38      1.36        
S           120.51      -27.0       2.16        
C           119.6       -28.15      0.07        
C           119.81      -26.77      -0.31       
C           120.33      -26.02      0.76        
N           119.66      -25.92      -1.42       
C           120.05      -24.69      -0.97       
C           120.46      -24.69      0.33        
C           119.23      -26.25      -2.8        
H           119.37      -25.4       -3.46       
H           118.17      -26.58      -2.81       
H           119.86841   -27.05173   -3.17117    
H           119.95      -23.25      -2.59       
H           119.33      -28.94      -0.58       
C           120.15      -23.42      -1.52       
S           120.9       -23.09      0.95        
C           120.55      -22.46      -0.64       
C           118.09      -36.63      8.6         
C           117.17      -36.18      7.67        
C           119.43      -36.07      8.45        
C           119.75      -35.23      7.42        
C           118.76      -34.87      6.39        
C           117.45      -35.35      6.62        
N           120.99      -34.58      7.19        
C           120.89      -33.89      6.0         
C           119.47      -33.97      5.48        
O           121.85      -33.36      5.5         
C           122.29      -34.88      7.82        
C           119.02      -33.26      4.39        
C           119.49      -32.06      3.67        
C           118.54      -31.7       2.69        
N           117.51      -32.61      2.71        
C           117.69      -33.56      3.68        
C           120.57      -31.19      3.78        
O           117.04      -34.65      3.6         
C           116.48      -32.8       1.7         
H           116.67      -35.09      5.92        
H           120.2       -36.26      9.18        
H           116.14      -36.45      7.73        
H           117.88      -30.21      1.35        
H           121.25      -31.35      4.62        
H           121.61      -29.45      3.05        
H           122.74      -33.86      7.98        
H           122.14      -35.4       8.79        
H           122.89559   -35.51376   7.17216     
H           116.32      -33.89      1.54        
H           115.51335   -32.31309   1.82889     
H           116.95      -32.56      0.75        
C           120.78      -30.09      2.93        
C           118.67      -30.52      1.92        
C           119.77      -29.69      2.07        
C           116.79      -41.81      14.29       
S           118.29      -41.12      13.6        
C           115.7       -41.29      13.65       
C           116.05      -40.31      12.66       
C           117.42      -40.1       12.56       
N           115.36      -39.46      11.7        
C           116.36      -38.84      11.01       
C           117.62      -39.24      11.53       
C           113.9       -39.21      11.79       
H           113.57      -38.38      11.19       
H           113.74      -38.8       12.79       
H           113.25886   -40.04627   11.51124    
H           115.63      -37.35      9.47        
H           114.72      -41.78      13.88       
C           116.42      -37.81      10.03       
S           118.85      -38.39      10.66       
C           117.71      -37.6       9.66        
C           117.11      -48.17      23.69       
C           118.27      -47.69      23.18       
C           115.87      -47.85      23.13       
C           115.82      -47.07      21.96       
C           117.0       -46.48      21.33       
C           118.18      -46.89      22.03       
N           114.73      -46.85      21.19       
C           115.04      -46.11      20.05       
C           116.61      -45.8       20.07       
O           114.12      -45.79      19.33       
C           113.59      -47.68      21.15       
C           117.37      -45.06      19.09       
C           116.99      -44.47      17.8        
C           118.08      -43.78      17.28       
N           119.22      -44.06      17.99       
C           118.87      -44.78      19.12       
C           115.8       -44.35      16.97       
O           119.76      -45.22      19.77       
C           120.57      -43.49      17.81       
H           119.12      -46.48      21.69       
H           114.97      -48.24      23.54       
H           119.21      -47.78      23.67       
H           118.98      -42.39      15.85       
H           114.9       -44.91      17.3        
H           114.73      -43.43      15.45       
H           113.12      -47.74      22.18       
H           112.74      -47.29      20.67       
H           113.71448   -48.63432   20.63826    
H           121.07      -43.33      18.7        
H           121.17656   -44.04601   17.09513    
H           120.56      -42.5       17.32       
C           115.72      -43.52      15.89       
C           118.03      -42.94      16.16       
C           116.84      -42.76      15.43       
C           119.13      -53.6       29.01       
S           119.98      -52.13      28.57       
C           117.84      -53.66      28.47       
C           117.62      -52.59      27.52       
C           118.62      -51.69      27.45       
N           116.51      -52.18      26.76       
C           116.89      -51.03      26.14       
C           118.16      -50.75      26.53       
C           115.17      -52.87      26.77       
H           114.41      -52.16      26.38       
H           114.86      -53.15      27.77       
H           115.23391   -53.7293    26.10245    
H           115.44      -50.34      24.59       
H           117.14      -54.45      28.59       
C           116.31      -50.12      25.18       
S           118.71      -49.33      25.74       
C           117.24      -49.14      24.8        
H           17.99       34.41       19.54       
H           119.45      -54.42      29.71       
