512

C           31.14       3.88        27.67       
C           30.38       2.99        27.02       
C           30.88       5.3         27.53       
C           29.95       5.76        26.61       
C           29.03       4.79        25.99       
C           29.3        3.4         26.23       
N           29.7        7.05        26.22       
C           28.6        7.06        25.37       
C           28.17       5.63        25.04       
O           28.06       8.03        24.8        
C           30.35       8.19        26.8        
C           27.12       5.35        24.12       
C           26.51       5.94        22.92       
C           25.31       5.19        22.54       
N           25.22       3.99        23.33       
C           26.35       3.99        24.2        
C           26.82       7.05        22.07       
O           26.62       2.99        24.9        
C           24.54       2.8         22.93       
H           28.72       2.67        25.78       
H           31.51       5.96        28.05       
H           30.57       1.95        27.19       
H           23.69       4.88        21.2        
H           27.71       7.67        22.32       
H           26.08       8.48        20.58       
H           30.91       8.02        27.68       
H           31.04       8.61        26.08       
H           29.6745     8.95083     27.19108    
H           24.28       2.82        21.92       
H           23.69471    2.66504     23.60481    
H           25.2        1.94        23.02       
C           25.96       7.43        20.97       
C           24.53       5.5         21.51       
C           24.76       6.69        20.79       
C           37.3        2.88        32.43       
S           35.76       3.69        32.66       
C           37.27       2.29        31.22       
C           36.07       2.41        30.47       
C           35.1        3.14        31.17       
N           35.53       2.0         29.26       
C           34.18       2.49        29.25       
C           33.96       3.28        30.39       
C           36.2        1.11        28.31       
H           35.69       1.13        27.34       
H           36.27       0.14        28.73       
H           37.19831    1.47302     28.06566    
H           33.31       2.01        27.34       
H           38.19       1.8         30.95       
C           33.19       2.46        28.29       
S           32.48       4.23        30.16       
C           32.25       3.45        28.55       
C           45.69       4.88        39.84       
C           45.93       4.28        38.57       
C           44.35       5.05        40.17       
C           43.33       4.7         39.31       
C           43.57       4.11        38.06       
C           44.92       3.91        37.75       
N           41.98       5.03        39.5        
C           41.26       4.66        38.43       
C           42.23       3.93        37.45       
O           40.07       4.9         38.45       
C           41.36       5.14        40.84       
C           41.83       3.36        36.2        
C           40.51       3.43        35.46       
C           40.71       2.66        34.24       
N           41.99       2.1         34.21       
C           42.78       2.63        35.21       
C           39.21       4.0         35.53       
O           43.91       2.45        35.24       
C           42.61       1.58        32.96       
H           45.22       3.5         36.78       
H           44.19       5.51        41.11       
H           46.92       4.05        38.23       
H           39.85       2.0         32.27       
H           39.04       4.65        36.4        
H           37.26       4.3         34.76       
H           42.09       5.54        41.51       
H           40.73       6.03        40.78       
H           40.95271    4.16542     41.1091     
H           42.15       0.68        32.45       
H           42.70202    2.35153     32.19555    
H           43.65       1.23        33.2        
C           38.2        3.82        34.58       
C           39.72       2.55        33.24       
C           38.4        3.06        33.43       
C           51.11       7.33        44.95       
S           49.44       7.81        44.75       
C           51.38       6.42        44.04       
C           50.33       6.05        43.2        
C           49.21       6.73        43.42       
N           50.17       5.07        42.19       
C           48.9        5.26        41.74       
C           48.21       6.24        42.51       
C           51.13       4.39        41.32       
H           50.7        3.96        40.49       
H           51.57       3.54        41.73       
H           51.93867    5.06025     41.02859    
H           48.37       3.91        40.08       
H           52.37       5.94        43.87       
C           48.06       4.68        40.78       
S           46.53       6.43        42.05       
C           46.76       5.27        40.75       
C           59.43       14.03       48.36       
C           59.71       12.87       47.62       
C           58.11       14.48       48.33       
C           57.1        13.59       48.04       
C           57.34       12.33       47.42       
C           58.73       12.02       47.22       
N           55.77       13.8        48.18       
C           55.06       12.68       47.82       
C           55.99       11.63       47.26       
O           53.85       12.7        47.82       
C           55.03       15.04       48.46       
C           55.53       10.41       46.91       
C           54.23       9.8         46.51       
C           54.4        8.42        46.21       
N           55.78       8.21        46.24       
C           56.51       9.3         46.54       
C           53.0        10.34       46.32       
O           57.74       9.21        46.5        
C           56.39       6.95        45.96       
H           59.07       11.05       46.71       
H           57.83       15.43       48.75       
H           60.73       12.52       47.45       
H           53.47       6.54        45.6        
H           52.88       11.42       46.27       
H           50.93       9.87        45.71       
H           55.63       15.87       48.26       
H           54.27       15.2        47.69       
H           54.66837    15.09063    49.48702    
H           55.91       6.23        46.69       
H           56.35507    6.62863     44.91904    
H           57.51       6.96        46.26       
C           51.93       9.46        45.88       
C           53.36       7.59        45.81       
C           52.06       8.1         45.7        
C           65.71       17.33       51.64       
S           64.14       17.08       52.36       
C           65.73       17.0        50.3        
C           64.56       16.45       49.88       
C           63.54       16.45       50.79       
N           64.06       16.04       48.65       
C           62.74       15.62       48.87       
C           62.39       15.97       50.09       
C           64.81       15.69       47.42       
H           64.11       15.44       46.66       
H           65.38       14.72       47.61       
H           65.49553    16.49325    47.14994    
H           61.83       14.69       46.99       
H           66.56       17.13       49.71       
C           61.72       15.1        48.02       
S           60.81       15.49       50.42       
C           60.59       14.83       48.79       
C           74.93       20.04       57.52       
C           73.68       19.6        58.14       
C           74.97       20.04       56.07       
C           73.8        19.69       55.4        
C           72.55       19.27       56.0        
C           72.55       19.29       57.4        
N           73.68       19.47       54.02       
C           72.41       19.19       53.68       
C           71.59       19.07       54.97       
O           72.11       19.21       52.49       
C           74.74       19.66       53.03       
C           70.19       18.84       54.94       
C           69.27       18.42       53.84       
C           67.97       18.34       54.4        
N           68.02       18.71       55.76       
C           69.28       19.01       56.14       
C           69.36       18.02       52.48       
O           69.54       19.5        57.25       
C           66.89       18.75       56.69       
H           71.66       18.99       57.93       
H           75.94       20.12       55.63       
H           73.62       19.46       59.21       
H           65.88       17.7        54.25       
H           70.28       17.98       51.95       
H           68.3        17.17       50.76       
H           75.71       19.63       53.43       
H           74.79       18.71       52.5        
H           74.65477    20.53357    52.3837     
H           66.04       19.18       56.25       
H           66.62688    17.75292    57.04313    
H           67.17       19.4        57.51       
C           68.18       17.59       51.81       
C           66.83       17.85       53.75       
C           66.91       17.71       52.38       
C           81.3        22.56       61.21       
S           80.98       22.5        59.49       
C           80.51       21.68       61.89       
C           79.41       21.25       61.1        
C           79.55       21.55       59.74       
N           78.18       20.59       61.32       
C           77.57       20.46       60.07       
C           78.36       21.09       59.09       
C           77.61       19.98       62.52       
H           76.81       19.28       62.26       
H           77.22       20.7        63.22       
H           78.36792    19.36326    63.00299    
H           75.46       19.75       60.3        
H           80.61       21.48       62.93       
C           76.26       20.0        59.68       
S           77.54       21.12       57.6        
C           76.15       20.23       58.32       
C           90.55       27.14       65.63       
C           90.58       26.57       64.36       
C           89.27       27.39       66.18       
C           88.12       27.11       65.48       
C           88.09       26.53       64.25       
C           89.34       26.35       63.67       
N           86.86       27.19       65.97       
C           85.89       26.74       65.1        
C           86.68       26.2        63.92       
O           84.71       26.76       65.27       
C           86.5        27.86       67.2        
C           86.03       25.57       62.9        
C           84.73       24.85       62.71       
C           84.74       24.28       61.42       
N           85.91       24.56       60.73       
C           86.77       25.39       61.55       
C           83.55       24.54       63.43       
O           87.87       25.8        61.08       
C           86.15       24.4        59.32       
H           89.4        25.87       62.78       
H           89.27       27.62       67.2        
H           91.5        26.23       63.9        
H           83.84       23.11       59.84       
H           83.51       24.92       64.46       
H           81.55       23.58       63.52       
H           87.22       27.7        68.05       
H           85.52       27.53       67.58       
H           86.43433    28.94714    67.15622    
H           86.07       23.33       59.06       
H           85.67735    25.10534    58.63648    
H           87.23       24.67       59.22       
C           82.48       23.76       62.93       
C           83.68       23.54       60.84       
C           82.51       23.28       61.63       
C           97.97       27.88       67.94       
S           97.17       27.91       66.38       
C           97.07       27.66       68.93       
C           95.69       27.7        68.44       
C           95.59       27.73       67.04       
N           94.4        27.45       68.97       
C           93.52       27.41       67.85       
C           94.23       27.63       66.66       
C           94.16       26.92       70.29       
H           93.14       26.58       70.35       
H           94.82       26.05       70.4        
H           94.4336     27.63821    71.06293    
H           91.3        27.37       68.48       
H           97.35       27.37       69.93       
C           92.07       27.35       67.71       
S           93.18       27.8        65.31       
C           91.78       27.38       66.32       
C           108.85      25.55       68.83       
C           108.35      26.3        67.73       
C           107.99      25.33       69.87       
C           106.63      25.62       69.71       
C           106.06      26.26       68.57       
C           107.05      26.68       67.66       
N           105.61      25.37       70.67       
C           104.45      25.98       70.22       
C           104.63      26.48       68.8        
O           103.48      25.99       71.01       
C           105.81      25.04       72.12       
C           103.55      26.91       68.06       
C           102.15      27.21       68.33       
C           101.6       27.59       67.08       
N           102.55      27.61       66.06       
C           103.71      26.99       66.54       
C           101.3       27.25       69.5        
O           104.7       26.89       65.8        
C           102.36      28.09       64.74       
H           106.79      27.37       66.86       
H           108.37      24.83       70.74       
H           108.98      26.63       66.88       
H           99.92       28.07       65.93       
H           101.65      27.08       70.49       
H           99.4        27.58       70.13       
H           105.27      25.77       72.75       
H           106.86      24.92       72.49       
H           105.33265   24.0853     72.34086    
H           101.36      27.75       64.4        
H           102.41086   29.17259    64.62375    
H           103.17      27.6        64.13       
C           99.99       27.61       69.29       
C           100.26      27.89       66.92       
C           99.4        27.84       68.06       
C           115.45      21.58       69.79       
S           114.2       21.98       70.96       
C           115.46      22.3        68.67       
C           114.25      23.07       68.59       
C           113.44      23.0        69.73       
N           113.61      23.95       67.73       
C           112.36      24.33       68.26       
C           112.28      23.77       69.58       
C           114.3       24.56       66.63       
H           114.4       25.67       66.89       
H           115.3       24.18       66.45       
H           113.65911   24.67653    65.75606    
H           111.22      25.65       67.01       
H           116.21      22.17       67.93       
C           111.27      25.2        67.99       
S           110.74      24.16       70.31       
C           110.25      25.07       68.92       
C           120.14      12.48       73.9        
C           120.48      13.75       74.41       
C           119.31      12.44       72.78       
C           118.82      13.58       72.26       
C           119.12      14.86       72.78       
C           119.97      14.91       73.8        
N           118.02      13.71       71.18       
C           117.86      15.07       70.89       
C           118.42      15.87       72.0        
O           117.32      15.3        69.83       
C           117.53      12.62       70.27       
C           118.33      17.21       72.08       
C           117.79      18.32       71.23       
C           117.62      19.45       71.99       
N           118.35      19.3        73.17       
C           118.67      17.96       73.35       
C           117.29      18.35       69.95       
O           119.26      17.63       74.38       
C           118.51      20.27       74.23       
H           120.42      15.85       73.98       
H           118.93      11.5        72.31       
H           121.08      13.92       75.23       
H           116.8       21.5        72.14       
H           117.23      17.46       69.35       
H           115.95      19.26       68.61       
H           116.66      12.95       69.75       
H           117.14      11.76       70.84       
H           118.33896   12.27018    69.62866    
H           118.38      19.79       75.14       
H           119.54804   20.59525    74.1608     
H           117.81      21.06       74.25       
C           116.52      19.42       69.5        
C           116.93      20.59       71.51       
C           116.39      20.57       70.25       
C           121.37      5.57        77.29       
S           121.29      7.16        78.05       
C           121.52      5.69        75.9        
C           121.39      6.99        75.47       
C           121.29      7.97        76.48       
N           121.47      7.67        74.27       
C           121.11      8.98        74.52       
C           121.07      9.22        75.89       
C           122.0       7.15        73.04       
H           122.5       8.04        72.6        
H           121.18      6.86        72.33       
H           122.72633   6.34955     73.18082    
H           120.99      10.09       72.53       
H           121.65      4.78        75.24       
C           120.89      10.11       73.62       
S           120.78      10.88       76.17       
C           120.6       11.2        74.39       
C           117.45      -3.78       82.32       
C           117.99      -2.71       83.06       
C           117.62      -3.79       80.93       
C           118.24      -2.67       80.27       
C           118.72      -1.59       81.04       
C           118.67      -1.66       82.42       
N           118.35      -2.34       78.95       
C           118.91      -1.13       78.72       
C           119.24      -0.56       80.1        
O           118.91      -0.73       77.57       
C           117.57      -3.12       77.99       
C           119.66      0.8         80.26       
C           120.28      1.84        79.34       
C           120.35      3.09        80.01       
N           119.87      2.91        81.37       
C           119.36      1.59        81.55       
C           120.79      1.92        78.0        
O           118.81      1.28        82.55       
C           119.89      3.89        82.44       
H           119.19      -0.92       83.0        
H           117.09      -4.48       80.3        
H           117.75      -2.6        84.11       
H           120.71      5.33        79.94       
H           120.68      1.05        77.31       
H           121.64      3.08        76.44       
H           117.38      -2.43       77.21       
H           116.59      -3.47       78.33       
H           118.09757   -3.95708    77.53277    
H           119.36      4.84        82.22       
H           120.90142   4.10219     82.78657    
H           119.37      3.51        83.33       
C           121.26      3.1         77.48       
C           120.74      4.39        79.4        
C           121.14      4.34        78.08       
C           112.16      -9.25       84.29       
S           112.35      -8.19       82.89       
C           113.14      -8.99       85.22       
C           114.03      -7.85       84.86       
C           113.67      -7.35       83.61       
N           115.16      -7.2        85.33       
C           115.55      -6.31       84.36       
C           114.63      -6.35       83.31       
C           115.88      -7.55       86.54       
H           116.62      -6.71       86.75       
H           116.43      -8.53       86.45       
H           115.23706   -7.61222    87.41799    
H           117.26      -5.05       84.96       
H           113.23      -9.64       86.03       
C           116.53      -5.33       84.2        
S           115.03      -5.15       82.11       
C           116.52      -4.74       82.97       
C           103.03      -15.5       84.33       
C           103.54      -14.94      83.14       
C           103.81      -15.42      85.53       
C           105.07      -14.8       85.53       
C           105.6       -14.25      84.35       
C           104.8       -14.3       83.16       
N           106.02      -14.69      86.54       
C           107.1       -13.98      86.09       
C           106.93      -13.64      84.65       
O           108.07      -13.89      86.7        
C           105.76      -15.01      87.94       
C           107.86      -12.95      83.92       
C           108.97      -12.04      84.33       
C           109.72      -11.71      83.13       
N           108.99      -12.2       82.02       
C           107.89      -12.88      82.38       
C           109.47      -11.56      85.56       
O           107.33      -13.53      81.51       
C           109.55      -12.45      80.67       
H           105.1       -13.73      82.32       
H           103.48      -16.04      86.35       
H           102.98      -15.0       82.2        
H           111.22      -10.58      82.23       
H           108.99      -11.81      86.44       
H           111.02      -10.29      86.5        
H           104.76      -15.44      88.04       
H           106.34      -15.87      88.24       
H           105.8883    -14.18315   88.63854    
H           109.38      -13.47      80.38       
H           109.11801   -11.76718   79.9384     
H           110.66      -12.31      80.64       
C           110.59      -10.69      85.56       
C           110.82      -10.91      83.18       
C           111.17      -10.31      84.35       
C           96.1        -18.97      83.73       
S           97.04       -18.13      82.51       
C           96.73       -19.09      84.94       
C           98.0        -18.35      84.91       
C           98.29       -17.73      83.61       
N           99.12       -18.25      85.7        
C           99.94       -17.41      85.02       
C           99.5        -17.09      83.75       
C           99.48       -19.06      86.87       
H           100.57      -19.09      87.1        
H           99.31       -20.07      86.72       
H           99.00089    -18.67072   87.76834    
H           101.78      -17.1       86.23       
H           96.38       -19.67      85.75       
C           101.21      -16.91      85.27       
S           100.64      -16.06      82.97       
C           101.7       -16.08      84.3        
C           87.41       -25.75      81.36       
C           88.37       -25.41      80.4        
C           87.43       -25.03      82.55       
C           88.59       -24.3       82.84       
C           89.64       -24.09      81.9        
C           89.51       -24.67      80.67       
N           88.84       -23.59      84.0        
C           89.93       -22.85      83.87       
C           90.62       -23.12      82.57       
O           90.16       -22.01      84.73       
C           88.05       -23.68      85.26       
C           91.74       -22.36      82.12       
C           92.71       -21.48      82.72       
C           93.74       -21.11      81.83       
N           93.51       -21.83      80.66       
C           92.38       -22.58      80.76       
C           92.91       -20.84      84.0        
O           92.09       -23.32      79.84       
C           94.51       -22.13      79.69       
H           90.22       -24.61      79.78       
H           86.63       -25.09      83.25       
H           88.38       -25.88      79.49       
H           95.49       -19.97      81.24       
H           92.12       -20.86      84.79       
H           94.1        -19.57      85.23       
H           87.96       -22.68      85.63       
H           86.97       -24.06      85.07       
H           88.53812    -24.36193   85.95629    
H           94.3        -23.01      79.08       
H           94.58644    -21.32388   78.96032    
H           95.46       -22.19      80.19       
C           93.98       -20.03      84.23       
C           94.78       -20.2       82.08       
C           94.99       -19.73      83.38       
C           81.37       -30.14      79.03       
S           82.87       -29.76      78.1        
C           81.59       -30.02      80.41       
C           82.73       -29.2       80.67       
C           83.5        -29.0       79.51       
N           83.29       -28.63      81.79       
C           84.4        -27.87      81.35       
C           84.57       -28.15      79.98       
C           82.69       -28.61      83.08       
H           83.45       -28.22      83.74       
H           82.52       -29.61      83.51       
H           81.74941    -28.05958   83.0591     
H           85.32       -26.77      82.99       
H           80.85       -30.31      81.22       
C           85.33       -27.04      81.9        
S           86.03       -27.36      79.44       
C           86.38       -26.75      81.07       
H           23.98       7.19        20.19       
H           80.39       -30.36      78.63       
