512

C           22.54       37.06       9.66        
C           22.41       38.31       9.05        
C           21.76       36.72       10.8        
C           20.98       37.73       11.37       
C           20.91       38.97       10.86       
C           21.58       39.28       9.61        
N           20.27       37.57       12.52       
C           19.79       38.81       12.87       
C           20.05       39.75       11.74       
O           19.05       38.87       13.82       
C           20.46       36.58       13.51       
C           19.53       41.06       11.65       
C           19.0        41.94       12.77       
C           18.44       43.08       12.15       
N           18.69       43.03       10.79       
C           19.41       41.86       10.38       
C           19.08       42.09       14.2        
O           19.58       41.65       9.24        
C           18.47       44.13       9.88        
H           21.52       40.26       9.27        
H           21.82       35.76       11.25       
H           22.99       38.55       8.17        
H           17.36       44.96       12.32       
H           19.42       41.2        14.76       
H           18.6        43.1        16.01       
H           19.48       36.47       14.0        
H           20.84       35.65       13.07       
H           21.2033     36.94804    14.21722    
H           18.36       45.04       10.29       
H           17.62325    43.9023     9.23249     
H           19.27       44.22       9.18        
C           18.52       43.16       14.89       
C           17.84       44.13       12.84       
C           17.91       44.21       14.18       
C           26.52       31.55       5.67        
S           25.7        32.93       5.04        
C           26.14       31.21       6.91        
C           25.34       32.25       7.47        
C           25.01       33.33       6.62        
N           24.91       32.59       8.74        
C           24.35       33.89       8.69        
C           24.38       34.39       7.41        
C           25.22       31.92       9.94        
H           24.56       32.34       10.71       
H           26.24       32.31       10.23       
H           25.09341    30.844      9.82044     
H           23.49       34.72       10.65       
H           26.55       30.4        7.49        
C           23.67       34.82       9.6         
S           23.48       35.84       7.24        
C           23.24       35.96       8.97        
C           36.31       28.0        1.76        
C           35.84       29.32       1.44        
C           35.48       27.16       2.45        
C           34.25       27.58       2.82        
C           33.66       28.75       2.46        
C           34.51       29.63       1.76        
N           33.26       26.8        3.47        
C           32.1        27.4        3.7         
C           32.27       28.74       2.98        
O           31.11       26.73       4.0         
C           33.39       25.42       3.71        
C           31.3        29.72       2.96        
C           30.02       29.86       3.71        
C           29.36       31.02       3.24        
N           30.18       31.7        2.35        
C           31.38       31.0        2.14        
C           29.35       29.18       4.77        
O           32.21       31.39       1.35        
C           30.09       33.07       2.06        
H           34.21       30.67       1.57        
H           35.95       26.25       2.77        
H           36.51       30.07       0.96        
H           27.93       32.52       3.47        
H           29.82       28.32       5.18        
H           27.81       29.26       6.26        
H           34.45       25.08       3.89        
H           32.86       25.1        4.61        
H           33.0642     24.84804    2.8412      
H           31.05       33.48       1.88        
H           29.34402    33.30224    1.29995     
H           29.9        33.51       3.09        
C           28.28       29.78       5.41        
C           28.26       31.54       3.81        
C           27.66       30.92       4.95        
C           43.45       26.4        -1.04       
S           42.31       27.58       -1.62       
C           42.89       25.59       -0.05       
C           41.54       26.0        0.25        
C           41.03       27.07       -0.49       
N           40.64       25.55       1.17        
C           39.57       26.37       0.99        
C           39.71       27.34       0.02        
C           40.58       24.26       1.8         
H           39.67       24.21       2.42        
H           41.46       24.16       2.45        
H           40.69493    23.44828    1.08167     
H           38.05       25.97       2.58        
H           43.39       24.77       0.33        
C           38.39       26.56       1.69        
S           38.4        28.5        -0.02       
C           37.58       27.54       1.21        
C           54.0        25.89       -4.67       
C           53.38       25.08       -3.68       
C           53.18       26.81       -5.31       
C           51.8        26.76       -5.07       
C           51.18       25.94       -4.09       
C           52.02       25.07       -3.4        
N           50.85       27.57       -5.64       
C           49.62       27.39       -5.07       
C           49.77       26.2        -4.07       
O           48.67       28.01       -5.35       
C           51.03       28.53       -6.73       
C           48.76       25.64       -3.31       
C           47.38       26.16       -2.75       
C           46.75       25.07       -2.05       
N           47.7        24.02       -2.0        
C           48.88       24.3        -2.68       
C           46.62       27.34       -2.89       
O           49.68       23.35       -2.84       
C           47.46       22.75       -1.4        
H           51.63       24.46       -2.56       
H           53.57       27.5        -6.07       
H           54.0        24.43       -3.04       
H           45.17       24.16       -0.97       
H           46.94       28.11       -3.49       
H           44.78       28.27       -2.59       
H           52.04       28.43       -7.09       
H           50.54       28.2        -7.55       
H           50.80676    29.57181    -6.49999    
H           48.12       22.01       -1.76       
H           47.48176    22.80804    -0.31176    
H           46.51       22.37       -1.75       
C           45.24       27.31       -2.39       
C           45.49       25.06       -1.52       
C           44.73       26.22       -1.68       
C           61.5        23.99       -5.28       
S           60.31       23.71       -3.99       
C           60.93       24.62       -6.37       
C           59.55       24.97       -6.16       
C           59.1        24.56       -4.9        
N           58.54       25.55       -6.93       
C           57.43       25.62       -6.08       
C           57.77       24.98       -4.84       
C           58.72       26.18       -8.23       
H           57.74       26.6        -8.5        
H           59.08       25.56       -9.03       
H           59.43626    27.0016     -8.23702    
H           55.65       26.51       -6.93       
H           61.43       24.82       -7.34       
C           56.03       26.01       -6.09       
S           56.44       24.98       -3.76       
C           55.39       25.74       -4.98       
C           72.41       21.77       -3.05       
C           71.92       21.67       -4.34       
C           71.49       22.07       -2.03       
C           70.21       22.25       -2.34       
C           69.69       22.3        -3.66       
C           70.62       21.92       -4.64       
N           69.24       22.71       -1.43       
C           68.05       22.91       -2.06       
C           68.23       22.68       -3.53       
O           67.17       23.34       -1.37       
C           69.41       22.71       0.03        
C           67.2        22.82       -4.5        
C           65.71       23.12       -4.51       
C           65.17       23.17       -5.83       
N           66.22       23.0        -6.69       
C           67.43       22.77       -6.07       
C           64.79       23.33       -3.47       
O           68.47       22.68       -6.73       
C           66.16       22.99       -8.13       
H           70.26       21.77       -5.64       
H           71.82       22.07       -1.04       
H           72.55       21.3        -5.13       
H           63.44       23.3        -7.15       
H           65.08       23.37       -2.46       
H           62.69       23.88       -3.02       
H           70.49       22.64       0.32        
H           69.01       23.65       0.42        
H           68.9106     21.84483    0.4661      
H           65.2        22.91       -8.63       
H           66.54463    23.91312    -8.56359    
H           66.76       22.12       -8.44       
C           63.43       23.66       -3.81       
C           63.83       23.27       -6.18       
C           62.89       23.55       -5.09       
C           79.97       19.84       -2.58       
S           78.87       19.88       -3.93       
C           79.38       20.19       -1.43       
C           77.96       20.31       -1.64       
C           77.51       20.27       -2.94       
N           76.92       20.76       -0.81       
C           75.79       21.0        -1.62       
C           76.12       20.68       -2.96       
C           76.88       20.72       0.62        
H           75.85       21.1        0.76        
H           77.55       21.35       1.08        
H           77.03571    19.69374    0.95265     
H           73.95       21.5        -0.51       
H           79.99       20.4        -0.54       
C           74.45       21.39       -1.47       
S           74.8        20.99       -4.05       
C           73.82       21.48       -2.72       
C           90.22       16.5        -5.45       
C           89.15       16.56       -6.37       
C           89.98       16.76       -4.13       
C           88.7        17.25       -3.78       
C           87.65       17.41       -4.62       
C           87.9        16.99       -5.95       
N           88.31       17.59       -2.44       
C           86.97       17.99       -2.4        
C           86.49       18.03       -3.91       
O           86.37       18.19       -1.41       
C           89.16       17.76       -1.34       
C           85.23       18.38       -4.24       
C           83.97       18.54       -3.58       
C           83.05       19.02       -4.51       
N           83.65       19.08       -5.78       
C           84.98       18.66       -5.69       
C           83.46       18.34       -2.26       
O           85.73       18.96       -6.59       
C           83.11       19.4        -7.02       
H           87.1        17.07       -6.68       
H           90.8        16.52       -3.45       
H           89.34       16.4        -7.46       
H           81.07       19.68       -4.97       
H           84.09       17.94       -1.53       
H           81.99       18.87       -0.9        
H           88.76       18.28       -0.45       
H           90.09       18.34       -1.59       
H           89.37259    16.79236    -0.8855     
H           82.1        19.02       -7.19       
H           83.005      20.45002    -7.29301    
H           83.7        18.93       -7.81       
C           82.23       18.88       -1.93       
C           81.71       19.33       -4.17       
C           81.34       19.42       -2.89       
C           97.22       14.06       -7.39       
S           96.51       14.15       -5.75       
C           96.47       14.56       -8.4        
C           95.28       14.99       -7.9        
C           95.15       14.79       -6.51       
N           94.13       15.47       -8.44       
C           93.27       15.59       -7.4        
C           93.85       15.28       -6.19       
C           93.92       15.64       -9.87       
H           94.68       15.15       -10.47      
H           93.07       15.03       -10.26      
H           93.89157    16.69915    -10.1259    
H           91.23       16.24       -8.09       
H           96.72       14.53       -9.46       
C           91.89       15.86       -7.29       
S           92.8        15.66       -4.84       
C           91.45       15.89       -6.0        
C           107.0       9.0         -8.67       
C           105.9       8.6         -9.48       
C           106.85      10.0        -7.74       
C           105.57      10.53       -7.49       
C           104.54      10.31       -8.43       
C           104.72      9.29        -9.42       
N           105.29      11.4        -6.47       
C           103.99      11.83       -6.58       
C           103.43      11.17       -7.85       
O           103.54      12.62       -5.77       
C           106.04      11.33       -5.2        
C           102.09      11.43       -8.34       
C           100.98      12.11       -7.78       
C           99.92       11.94       -8.72       
N           100.24      11.14       -9.76       
C           101.58      10.81       -9.62       
C           100.71      13.0        -6.63       
O           102.11      10.12       -10.42      
C           99.35       10.54       -10.7       
H           104.0       8.91        -10.05      
H           107.62      10.22       -7.04       
H           106.08      7.85        -10.29      
H           97.89       12.4        -9.21       
H           101.5       13.35       -5.99       
H           99.37       14.48       -5.75       
H           105.77      12.13       -4.57       
H           107.14      11.45       -5.24       
H           105.74098   10.44653    -4.63594    
H           98.35       10.53       -10.45      
H           99.47403    11.07059    -11.64403   
H           99.47       9.55        -10.89      
C           99.49       13.67       -6.52       
C           98.68       12.62       -8.55       
C           98.45       13.38       -7.44       
C           113.48      4.73        -9.46       
S           111.83      4.28        -9.13       
C           113.68      6.11        -9.67       
C           112.42      6.75        -9.47       
C           111.33      5.93        -9.16       
N           111.98      8.07        -9.38       
C           110.59      8.09        -9.15       
C           110.18      6.75        -9.01       
C           112.78      9.21        -9.92       
H           113.51      8.82        -10.56      
H           112.26      10.08       -10.27      
H           113.43813   9.54622     -9.1188     
H           109.52      10.11       -9.27       
H           114.61      6.56        -9.93       
C           109.51      9.02        -9.08       
S           108.45      6.59        -8.82       
C           108.29      8.38        -8.81       
C           120.71      -3.7        -11.11      
C           121.07      -2.52       -10.51      
C           119.33      -3.87       -11.44      
C           118.46      -2.8        -11.26      
C           118.85      -1.54       -10.67      
C           120.21      -1.49       -10.19      
N           117.06      -2.79       -11.48      
C           116.56      -1.52       -11.32      
C           117.68      -0.63       -10.74      
O           115.39      -1.41       -11.31      
C           116.23      -3.86       -11.98      
C           117.45      0.7         -10.46      
C           116.25      1.6         -10.51      
C           116.66      2.86        -10.03      
N           118.01      2.88        -9.84       
C           118.57      1.7         -10.2       
C           114.89      1.49        -10.86      
O           119.8       1.5         -10.42      
C           118.85      3.94        -9.16       
H           120.66      -0.57       -9.81       
H           119.03      -4.77       -11.94      
H           122.09      -2.45       -10.13      
H           116.17      4.78        -9.11       
H           114.49      0.62        -11.39      
H           112.98      2.51        -10.73      
H           115.21      -3.85       -11.58      
H           116.66      -4.79       -11.61      
H           116.14546   -3.9234     -13.06487   
H           118.2       4.82        -9.19       
H           119.05874   3.60169     -8.14507    
H           119.74      4.18        -9.73       
C           114.02      2.59        -10.55      
C           115.76      3.89        -9.58       
C           114.41      3.72        -9.87       
C           124.51      -10.39      -11.46      
S           122.79      -10.07      -11.52      
C           125.32      -9.27       -11.34      
C           124.52      -8.11       -11.29      
C           123.18      -8.42       -11.36      
N           124.77      -6.75       -11.06      
C           123.5       -6.18       -11.04      
C           122.52      -7.16       -11.27      
C           126.06      -6.05       -11.12      
H           126.02      -4.92       -11.03      
H           126.62      -6.18       -12.04      
H           126.74705   -6.40461    -10.35168   
H           123.56      -4.04       -11.13      
H           126.38      -9.25       -11.21      
C           122.97      -4.87       -11.0       
S           120.92      -6.49       -11.16      
C           121.58      -4.86       -11.07      
C           125.57      -21.58      -10.45      
C           126.47      -20.83      -9.71       
C           124.77      -21.01      -11.46      
C           124.83      -19.63      -11.62      
C           125.72      -18.76      -10.88      
C           126.51      -19.46      -9.89       
N           124.18      -18.98      -12.59      
C           124.54      -17.64      -12.53      
C           125.49      -17.4       -11.37      
O           124.05      -16.86      -13.33      
C           123.69      -19.51      -13.83      
C           125.82      -16.09      -11.01      
C           125.4       -14.7       -11.42      
C           126.08      -13.72      -10.61      
N           126.81      -14.44      -9.66       
C           126.65      -15.83      -9.73       
C           124.41      -14.1       -12.26      
O           127.23      -16.54      -8.85       
C           127.93      -13.82      -8.87       
H           127.14      -18.9       -9.22       
H           124.05      -21.64      -12.07      
H           127.07      -21.24      -8.89       
H           126.48      -11.58      -10.0       
H           123.71      -14.78      -12.77      
H           123.29      -12.35      -12.73      
H           124.33      -20.32      -14.17      
H           123.84      -18.76      -14.58      
H           122.66793   -19.87908   -13.74483   
H           127.58      -12.89      -8.41       
H           128.79992   -13.64602   -9.5033     
H           128.17      -14.54      -8.06       
C           124.12      -12.73      -12.14      
C           125.94      -12.25      -10.67      
C           124.88      -11.79      -11.45      
C           124.75      -29.31      -10.01      
S           124.07      -28.15      -11.07      
C           125.76      -28.76      -9.27       
C           125.89      -27.37      -9.53       
C           125.05      -26.88      -10.52      
N           126.74      -26.37      -9.22       
C           126.31      -25.16      -9.72       
C           125.21      -25.48      -10.57      
C           127.67      -26.44      -8.11       
H           128.28      -25.52      -8.06       
H           128.37      -27.26      -8.17       
H           127.11255   -26.46859   -7.17377    
H           127.43      -23.44      -8.96       
H           126.37      -29.34      -8.54       
C           126.62      -23.77      -9.57       
S           124.49      -24.02      -11.12      
C           125.67      -23.04      -10.26      
C           118.74      -36.77      -4.68       
C           118.39      -35.44      -5.05       
C           119.87      -37.27      -5.38       
C           120.67      -36.41      -6.21       
C           120.26      -35.14      -6.6        
C           119.06      -34.65      -5.98       
N           121.8       -36.74      -6.97       
C           122.18      -35.73      -7.83       
C           121.22      -34.64      -7.66       
O           122.98      -35.99      -8.73       
C           122.78      -37.58      -6.38       
C           121.27      -33.46      -8.35       
C           122.39      -32.75      -9.05       
C           121.84      -31.52      -9.43       
N           120.47      -31.51      -9.36       
C           120.09      -32.63      -8.66       
C           123.77      -32.9       -9.16       
O           118.89      -32.72      -8.47       
C           119.51      -30.66      -9.98       
H           118.54      -33.73      -6.23       
H           120.19      -38.3       -5.15       
H           117.42      -35.03      -4.65       
H           122.13      -29.5       -9.95       
H           124.26      -33.91      -8.94       
H           125.68      -31.94      -9.57       
H           122.36      -38.14      -5.71       
H           123.47      -38.18      -7.02       
H           123.48605   -36.92337   -5.87164    
H           118.72      -31.19      -10.41      
H           119.11292   -29.8514    -9.36633    
H           120.03      -30.11      -10.72      
C           124.59      -31.84      -9.52       
C           122.63      -30.41      -9.76       
C           123.98      -30.56      -9.82       
C           115.6       -41.26      0.98        
S           116.95      -41.51      -0.05       
C           115.03      -40.03      0.72        
C           115.62      -39.32      -0.34       
C           116.79      -39.93      -0.8        
N           115.47      -38.13      -1.05       
C           116.49      -38.09      -2.01       
C           117.38      -39.16      -1.84       
C           114.35      -37.18      -0.96       
H           114.37      -36.48      -1.81       
H           114.44      -36.59      -0.05       
H           113.39385   -37.70153   -1.00346    
H           116.28      -36.37      -3.46       
H           114.15      -39.65      1.27        
C           116.91      -37.2       -3.04       
S           118.65      -39.1       -3.0        
C           118.08      -37.53      -3.59       
C           113.15      -46.6       10.41       
C           114.47      -46.37      10.0        
C           112.14      -46.47      9.43        
C           112.53      -46.13      8.13        
C           113.85      -45.82      7.73        
C           114.83      -46.0       8.71        
N           111.72      -45.83      7.04        
C           112.45      -45.44      5.88        
C           113.88      -45.36      6.33        
O           111.97      -45.31      4.74        
C           110.3       -45.8       7.01        
C           114.82      -44.87      5.39        
C           114.76      -44.06      4.15        
C           116.05      -43.8       3.7         
N           116.92      -44.54      4.53        
C           116.28      -45.2       5.61        
C           113.77      -43.37      3.47        
O           116.99      -45.65      6.53        
C           118.42      -44.6       4.45        
H           115.89      -45.79      8.5         
H           111.07      -46.58      9.67        
H           115.25      -46.38      10.72       
H           117.41      -42.8       2.28        
H           112.77      -43.5       3.76        
H           113.22      -41.79      2.31        
H           109.9       -46.66      6.52        
H           109.98      -45.89      8.03        
H           109.89682   -44.85925   6.63512     
H           118.84      -44.98      5.41        
H           118.83156   -45.10542   3.57635     
H           118.82      -43.58      4.45        
C           114.07      -42.37      2.57        
C           116.35      -43.01      2.62        
C           115.37      -42.2       2.07        
C           110.4       -48.85      17.29       
S           109.83      -48.89      15.67       
C           111.59      -48.19      17.44       
C           112.08      -47.83      16.13       
C           111.23      -48.11      15.12       
N           113.21      -47.26      15.52       
C           113.01      -47.21      14.13       
C           111.72      -47.65      13.92       
C           114.5       -46.91      16.11       
H           114.84      -46.0       15.6        
H           115.27      -47.66      15.99       
H           114.4033    -46.66133   17.16684    
H           114.64      -46.39      12.93       
H           111.99      -48.0       18.39       
C           113.66      -46.75      12.93       
S           111.37      -47.77      12.25       
C           112.91      -46.98      11.83       
H           17.25       44.82       14.69       
H           110.05      -49.64      17.89       
