512

C           22.37       31.43       10.16       
C           21.74       32.14       9.14        
C           22.1        31.73       11.5        
C           21.12       32.68       11.78       
C           20.44       33.42       10.73       
C           20.86       33.15       9.43        
N           20.49       32.92       12.98       
C           19.7        34.07       12.87       
C           19.45       34.28       11.35       
O           19.18       34.56       13.84       
C           20.46       31.95       14.07       
C           18.74       35.4        10.83       
C           17.66       36.22       11.38       
C           17.41       37.32       10.49       
N           18.24       37.24       9.37        
C           18.99       36.05       9.51        
C           16.83       36.14       12.55       
O           19.87       35.8        8.72        
C           17.89       37.76       8.11        
H           20.34       33.53       8.61        
H           22.76       31.22       12.24       
H           22.03       31.83       8.16        
H           16.38       39.28       10.4        
H           16.99       35.34       13.27       
H           15.47       37.08       13.82       
H           19.48       31.44       14.18       
H           21.09       31.15       13.76       
H           21.03778    32.29806    14.92623    
H           18.15       38.82       8.07        
H           16.8699     37.51639    7.8131      
H           18.59       37.41       7.37        
C           16.0        37.15       12.89       
C           16.49       38.31       10.87       
C           15.84       38.22       12.07       
C           29.12       28.71       7.96        
S           28.44       30.32       7.87        
C           28.37       27.76       8.6         
C           27.16       28.38       9.07        
C           27.06       29.74       8.59        
N           26.06       28.02       9.81        
C           25.23       29.14       9.73        
C           25.76       30.16       8.94        
C           25.84       26.85       10.64       
H           24.81       26.5        10.77       
H           26.14       27.08       11.66       
H           26.31678    25.92624    10.31221    
H           23.23       28.74       10.66       
H           28.55       26.67       8.77        
C           23.9        29.37       10.12       
S           24.7        31.5        8.74        
C           23.55       30.68       9.75        
C           39.54       26.93       3.99        
C           39.14       28.17       4.37        
C           38.48       25.94       4.08        
C           37.26       26.22       4.52        
C           36.82       27.53       4.81        
C           37.81       28.52       4.74        
N           36.22       25.29       4.62        
C           35.05       25.91       4.91        
C           35.34       27.42       5.14        
O           33.99       25.35       5.03        
C           36.39       23.91       5.0         
C           34.32       28.27       5.63        
C           32.97       28.11       6.23        
C           32.5        29.43       6.44        
N           33.45       30.41       6.21        
C           34.56       29.81       5.63        
C           32.21       27.02       6.69        
O           35.53       30.53       5.35        
C           33.45       31.85       6.49        
H           37.58       29.57       4.89        
H           38.72       24.93       3.79        
H           39.76       29.02       4.36        
H           30.91       30.66       7.14        
H           32.45       26.05       6.57        
H           30.37       26.43       7.56        
H           37.46       23.62       4.9         
H           36.14       23.71       6.0         
H           35.7608     23.2951     4.3565      
H           34.39       32.17       6.94        
H           33.27557    32.45005    5.59691     
H           32.73       32.11       7.26        
C           31.03       27.25       7.29        
C           31.28       29.66       7.03        
C           30.49       28.56       7.41        
C           47.02       26.71       2.13        
S           45.97       28.08       2.56        
C           46.32       25.55       2.17        
C           44.96       25.72       2.44        
C           44.58       27.04       2.67        
N           43.82       24.9        2.44        
C           42.88       25.7        3.05        
C           43.25       27.04       3.0         
C           43.69       23.45       2.62        
H           42.67       23.08       2.48        
H           43.99       23.21       3.65        
H           44.22605    22.92864    1.82694     
H           40.9        24.6        3.59        
H           46.77       24.58       2.05        
C           41.51       25.53       3.47        
S           41.96       28.1        3.54        
C           40.94       26.72       3.73        
C           57.78       28.27       -0.6        
C           57.33       27.08       -0.07       
C           56.96       29.33       -0.58       
C           55.62       29.13       -0.22       
C           55.08       27.98       0.29        
C           56.01       26.94       0.48        
N           54.62       30.11       -0.31       
C           53.41       29.63       0.12        
C           53.6        28.1        0.41        
O           52.44       30.35       0.15        
C           54.69       31.5        -0.57       
C           52.56       27.19       0.64        
C           51.1        27.37       1.06        
C           50.52       26.08       1.08        
N           51.5        25.06       0.78        
C           52.72       25.66       0.5         
C           50.25       28.46       1.39        
O           53.7        25.05       0.09        
C           51.25       23.65       0.69        
H           55.67       25.99       0.95        
H           57.31       30.25       -0.98       
H           58.02       26.25       -0.08       
H           48.75       24.94       1.4         
H           50.69       29.45       1.51        
H           48.34       29.14       2.0         
H           55.65       31.67       -1.12       
H           53.86       31.96       -1.14       
H           54.71854    31.93525    0.42892     
H           52.12       23.18       0.16        
H           51.07215    23.18049    1.65748     
H           50.43       23.51       -0.01       
C           48.94       28.22       1.72        
C           49.21       25.9        1.37        
C           48.37       26.97       1.65        
C           65.13       28.02       -3.31       
S           64.32       27.02       -2.14       
C           64.3        28.95       -3.81       
C           62.99       28.94       -3.24       
C           62.83       27.93       -2.3        
N           61.79       29.67       -3.49       
C           60.86       29.06       -2.62       
C           61.49       27.99       -1.98       
C           61.46       30.46       -4.66       
H           60.47       30.97       -4.51       
H           61.02       29.87       -5.52       
H           62.26596    31.15479    -4.89623    
H           58.76       29.91       -2.68       
H           64.67       29.7        -4.51       
C           59.49       29.25       -2.17       
S           60.44       27.26       -0.79       
C           59.11       28.36       -1.2        
C           76.48       26.93       -3.16       
C           75.84       27.51       -4.29       
C           75.68       26.61       -2.08       
C           74.28       26.83       -2.23       
C           73.6        27.39       -3.34       
C           74.47       27.69       -4.41       
N           73.31       26.43       -1.34       
C           72.03       26.88       -1.65       
C           72.14       27.49       -3.02       
O           71.12       26.71       -0.87       
C           73.58       25.5        -0.23       
C           70.97       27.94       -3.65       
C           69.51       27.73       -3.4        
C           68.79       28.62       -4.29       
N           69.71       29.13       -5.22       
C           71.03       28.79       -4.93       
C           68.65       26.98       -2.52       
O           71.92       29.1        -5.74       
C           69.39       29.91       -6.44       
H           74.07       28.13       -5.33       
H           76.09       26.28       -1.16       
H           76.44       27.91       -5.05       
H           66.85       29.29       -5.16       
H           69.1        26.27       -1.88       
H           66.76       26.57       -1.69       
H           74.61       25.59       0.0         
H           72.96       25.84       0.68        
H           73.36838    24.46308    -0.49099    
H           68.35       29.75       -6.72       
H           69.60701    30.97337    -6.33873    
H           69.86       29.37       -7.24       
C           67.27       27.17       -2.47       
C           67.38       28.66       -4.39       
C           66.62       27.99       -3.43       
C           84.08       25.03       -3.66       
S           83.09       25.88       -4.83       
C           83.42       24.85       -2.45       
C           82.08       25.29       -2.54       
C           81.71       25.95       -3.73       
N           80.96       25.17       -1.78       
C           79.92       25.75       -2.44       
C           80.32       26.21       -3.61       
C           80.94       24.53       -0.44       
H           79.94       24.77       0.04        
H           81.77       24.92       0.19        
H           80.99472    23.44243    -0.48788    
H           78.07       25.76       -1.08       
H           83.83       24.38       -1.63       
C           78.54       25.93       -2.05       
S           78.91       26.76       -4.5        
C           77.95       26.63       -3.06       
C           94.2        21.91       -7.61       
C           93.07       22.31       -8.37       
C           93.89       21.59       -6.27       
C           92.7        21.94       -5.68       
C           91.59       22.43       -6.45       
C           91.9        22.64       -7.8        
N           92.41       22.08       -4.32       
C           91.12       22.54       -4.11       
C           90.46       22.66       -5.49       
O           90.65       22.67       -3.02       
C           93.18       21.47       -3.25       
C           89.07       22.99       -5.67       
C           87.92       23.45       -4.88       
C           86.81       23.67       -5.76       
N           87.22       23.39       -7.05       
C           88.54       22.93       -7.13       
C           87.65       23.84       -3.58       
O           89.02       22.66       -8.25       
C           86.4        23.56       -8.24       
H           91.17       23.04       -8.54       
H           94.73       21.41       -5.62       
H           93.11       22.39       -9.45       
H           84.81       24.29       -6.07       
H           88.4        23.79       -2.83       
H           86.24       24.67       -2.25       
H           93.71       20.57       -3.65       
H           92.48       21.08       -2.42       
H           93.87843    22.16843    -2.78904    
H           85.39       23.1        -8.11       
H           86.35778    24.62258    -8.47926    
H           86.96       23.08       -9.03       
C           86.41       24.34       -3.22       
C           85.58       24.08       -5.36       
C           85.37       24.44       -4.09       
C           101.2       19.35       -9.66       
S           100.46      19.64       -8.09       
C           100.48      19.87       -10.63      
C           99.25       20.39       -10.21      
C           99.08       20.28       -8.82       
N           98.05       20.77       -10.78      
C           97.15       20.97       -9.72       
C           97.84       20.78       -8.47       
C           97.56       20.63       -12.18      
H           98.04       19.7        -12.6       
H           96.46       20.49       -12.15      
H           97.80811    21.54448    -12.71876   
H           95.1        21.57       -10.32      
H           100.75      19.73       -11.66      
C           95.82       21.35       -9.52       
S           96.85       21.09       -7.11       
C           95.5        21.55       -8.18       
C           110.94      13.74       -10.25      
C           110.35      14.21       -11.41      
C           110.43      14.26       -9.09       
C           109.34      15.11       -9.07       
C           108.66      15.57       -10.17      
C           109.19      15.08       -11.39      
N           108.74      15.61       -7.89       
C           107.69      16.43       -8.19       
C           107.58      16.47       -9.67       
O           107.14      17.14       -7.39       
C           109.02      15.21       -6.53       
C           106.47      17.09       -10.39      
C           105.16      17.64       -9.98       
C           104.46      18.08       -11.14      
N           105.24      17.87       -12.28      
C           106.49      17.3        -11.93      
C           104.44      17.8        -8.75       
O           107.44      17.21       -12.75      
C           105.25      18.65       -13.47      
H           108.79      15.28       -12.39      
H           110.82      13.87       -8.14       
H           110.66      13.8        -12.41      
H           102.61      18.82       -11.97      
H           104.89      17.5        -7.8        
H           102.67      18.26       -7.74       
H           108.45      15.86       -5.85       
H           110.04      15.3        -6.28       
H           108.68399   14.18796    -6.35499    
H           106.2       18.8        -13.89      
H           104.64099   18.18799    -14.24702   
H           104.9       19.63       -13.21      
C           103.17      18.26       -8.66       
C           103.11      18.53       -11.1       
C           102.51      18.69       -9.83       
C           116.03      7.89        -11.08      
S           114.62      8.34        -12.01      
C           116.15      8.67        -9.95       
C           115.17      9.72        -9.94       
C           114.29      9.63        -10.98      
N           114.88      10.73       -9.05       
C           113.72      11.32       -9.64       
C           113.31      10.63       -10.8       
C           115.62      11.18       -7.96       
H           116.76      11.16       -8.21       
H           115.39      12.21       -7.66       
H           115.52319   10.52307    -7.09561    
H           113.1       13.08       -8.5        
H           117.03      8.55        -9.3        
C           112.96      12.44       -9.37       
S           111.95      11.48       -11.5       
C           111.89      12.62       -10.19      
C           122.23      -1.03       -14.43      
C           122.84      0.05        -13.84      
C           120.92      -0.9        -14.88      
C           120.26      0.29        -14.57      
C           120.8       1.38        -13.86      
C           122.18      1.22        -13.48      
N           118.95      0.58        -14.99      
C           118.67      1.86        -14.56      
C           119.8       2.42        -13.66      
O           117.64      2.37        -14.9       
C           117.87      -0.39       -15.39      
C           119.62      3.54        -12.84      
C           118.54      4.59        -12.61      
C           118.95      5.4         -11.48      
N           120.13      4.87        -10.89      
C           120.63      3.87        -11.72      
C           117.32      5.01        -13.24      
O           121.66      3.37        -11.32      
C           120.82      5.33        -9.69       
H           122.63      2.12        -13.03      
H           120.39      -1.74       -15.28      
H           123.89      -0.08       -13.5       
H           118.59      6.93        -10.07      
H           116.99      4.5         -14.16      
H           115.58      6.26        -13.14      
H           116.95      -0.01       -15.03      
H           117.97      -1.4        -14.99      
H           117.72005   -0.3975     -16.46961   
H           120.42      6.3         -9.41       
H           120.79844   4.61135     -8.87074    
H           121.9       5.45        -9.94       
C           116.59      6.02        -12.69      
C           118.21      6.44        -10.99      
C           116.92      6.76        -11.52      
C           125.16      -8.12       -15.29      
S           123.54      -7.46       -15.56      
C           126.11      -7.15       -15.07      
C           125.44      -5.82       -14.91      
C           124.09      -5.86       -15.29      
N           125.79      -4.49       -14.57      
C           124.59      -3.77       -14.73      
C           123.56      -4.55       -15.19      
C           127.13      -4.01       -14.31      
H           127.09      -2.89       -14.51      
H           127.89      -4.52       -14.96      
H           127.44617   -4.18964    -13.28245   
H           124.94      -1.7        -14.16      
H           127.14      -7.38       -14.95      
C           124.26      -2.43       -14.52      
S           122.08      -3.66       -15.31      
C           122.95      -2.26       -14.73      
C           125.14      -18.67      -12.89      
C           125.97      -17.74      -12.32      
C           124.5       -18.35      -14.05      
C           124.87      -17.11      -14.69      
C           125.69      -16.14      -14.08      
C           126.24      -16.53      -12.87      
N           124.44      -16.64      -15.95      
C           124.75      -15.34      -16.16      
C           125.59      -14.92      -14.92      
O           124.43      -14.71      -17.16      
C           123.75      -17.35      -16.95      
C           126.19      -13.74      -14.71      
C           125.84      -12.4       -15.18      
C           126.63      -11.49      -14.51      
N           127.68      -12.15      -13.88      
C           127.56      -13.48      -13.98      
C           124.83      -11.87      -15.96      
O           128.41      -14.25      -13.48      
C           128.75      -11.53      -13.14      
H           126.79      -15.87      -12.32      
H           123.95      -19.07      -14.58      
H           126.54      -17.94      -11.38      
H           127.17      -9.5        -14.02      
H           124.07      -12.5       -16.47      
H           123.86      -10.0       -16.53      
H           123.96      -18.42      -16.89      
H           124.11      -17.01      -17.94      
H           122.70115   -17.14023   -16.74023   
H           128.38      -10.65      -12.58      
H           129.60555   -11.16831   -13.71036   
H           129.21      -12.16      -12.29      
C           124.66      -10.49      -15.95      
C           126.5       -10.14      -14.6       
C           125.48      -9.59       -15.29      
C           122.78      -25.69      -9.94       
S           121.86      -24.52      -10.87      
C           124.05      -25.2       -9.74       
C           124.3       -23.93      -10.31      
C           123.25      -23.41      -11.06      
N           125.4       -23.07      -10.4       
C           125.03      -21.97      -11.14      
C           123.72      -22.18      -11.54      
C           126.6       -23.32      -9.54       
H           127.36      -22.52      -9.63       
H           127.13      -24.2       -9.98       
H           126.30767   -23.42231   -8.49493    
H           126.7       -20.51      -11.22      
H           124.69      -25.72      -9.05       
C           125.66      -20.73      -11.46      
S           123.31      -20.74      -12.51      
C           124.8       -19.92      -12.19      
C           118.12      -33.38      -3.35       
C           117.43      -32.46      -4.03       
C           119.49      -33.51      -3.57       
C           120.07      -32.62      -4.47       
C           119.36      -31.77      -5.34       
C           118.0       -31.71      -5.04       
N           121.44      -32.61      -4.88       
C           121.7       -31.65      -5.85       
C           120.31      -31.04      -6.18       
O           122.76      -31.57      -6.42       
C           122.55      -33.37      -4.32       
C           120.11      -30.11      -7.21       
C           121.01      -29.09      -7.79       
C           120.34      -28.38      -8.85       
N           119.02      -28.9       -8.91       
C           118.82      -29.94      -8.02       
C           122.32      -28.7       -7.68       
O           117.88      -30.72      -8.1        
C           118.05      -28.5       -9.89       
H           117.49      -30.93      -5.54       
H           120.09      -34.25      -3.11       
H           116.36      -32.23      -3.79       
H           120.2       -26.65      -10.18      
H           122.97      -29.16      -6.93       
H           123.79      -27.39      -8.11       
H           122.18      -34.14      -3.7        
H           123.25      -33.75      -5.13       
H           123.10841   -32.73812   -3.62934    
H           117.79      -29.4       -10.48      
H           117.17273   -28.01184   -9.46551    
H           118.55      -27.87      -10.55      
C           122.83      -27.68      -8.41       
C           120.83      -27.19      -9.44       
C           122.17      -26.86      -9.29       
C           114.25      -37.44      2.02        
S           115.88      -36.8       2.01        
C           113.64      -37.2       0.85        
C           114.4       -36.38      0.06        
C           115.64      -35.98      0.53        
N           114.28      -35.94      -1.26       
C           115.5       -35.29      -1.57       
C           116.31      -35.28      -0.44       
C           113.33      -36.51      -2.18       
H           113.46      -36.1       -3.25       
H           112.27      -36.23      -1.93       
H           113.49886   -37.58192   -2.28279    
H           115.74      -34.63      -3.59       
H           112.71      -37.59      0.57        
C           116.11      -34.66      -2.66       
S           117.82      -34.51      -0.73       
C           117.35      -34.2       -2.41       
C           110.76      -46.24      7.95        
C           111.95      -45.61      8.2         
C           109.96      -45.75      6.94        
C           110.35      -44.56      6.26        
C           111.68      -43.93      6.45        
C           112.43      -44.49      7.56        
N           109.64      -43.77      5.31        
C           110.44      -42.68      4.87        
C           111.87      -42.82      5.51        
O           110.2       -41.86      3.99        
C           108.23      -43.89      5.02        
C           112.96      -42.04      5.16        
C           113.07      -40.75      4.52        
C           114.37      -40.58      4.12        
N           115.19      -41.63      4.61        
C           114.37      -42.53      5.31        
C           112.17      -39.77      4.13        
O           114.73      -43.66      5.71        
C           116.55      -41.89      4.24        
H           113.34      -44.11      7.85        
H           108.96      -46.16      6.88        
H           112.55      -45.97      9.06        
H           115.88      -39.31      3.17        
H           111.12      -39.8       4.39        
H           111.92      -37.9       3.07        
H           107.89      -44.78      5.58        
H           107.63      -43.11      5.43        
H           108.06651   -44.04639   3.95374     
H           117.09      -42.63      4.8         
H           116.61234   -42.29176   3.22866     
H           117.08      -40.9       4.21        
C           112.6       -38.67      3.34        
C           114.81      -39.44      3.41        
C           113.92      -38.44      3.04        
C           107.09      -51.64      12.25       
S           106.87      -51.06      10.63       
C           108.18      -51.1       12.83       
C           108.86      -50.1       11.93       
C           108.24      -50.02      10.62       
N           109.9       -49.23      12.0        
C           109.93      -48.56      10.74       
C           108.94      -49.04      9.83        
C           110.87      -49.28      13.09       
H           111.69      -48.64      12.78       
H           111.27      -50.26      13.24       
H           110.52718   -48.84965   14.03094    
H           111.44      -46.99      10.6        
H           108.44      -51.33      13.84       
C           110.64      -47.5       10.14       
S           108.84      -48.21      8.29        
C           110.28      -47.32      8.84        
H           15.0        38.89       12.32       
H           106.26      -52.06      12.8        
