512

C           29.37       32.56       4.67        
C           28.3        31.67       5.07        
C           29.02       33.64       3.89        
C           27.68       33.82       3.49        
C           26.62       32.96       3.87        
C           26.97       31.91       4.67        
N           27.27       34.78       2.57        
C           25.88       34.73       2.42        
C           25.37       33.47       3.18        
O           25.32       35.44       1.63        
C           28.01       36.04       2.36        
C           24.0        33.05       3.25        
C           22.69       33.6        2.79        
C           21.7        32.65       3.08        
N           22.24       31.55       3.71        
C           23.57       31.79       3.96        
C           22.22       34.7        2.01        
O           24.17       31.01       4.64        
C           21.66       30.19       3.76        
H           26.26       31.21       5.09        
H           29.82       34.32       3.63        
H           28.48       30.79       5.77        
H           19.76       32.01       2.91        
H           22.94       35.41       1.72        
H           20.56       35.93       1.43        
H           29.05       35.8        2.28        
H           27.7        36.34       1.38        
H           27.81679    36.79854    3.11854     
H           21.19       29.9        2.83        
H           21.10176    30.02253    4.6811      
H           22.51       29.49       3.84        
C           20.88       34.99       1.87        
C           20.4        32.87       2.75        
C           19.89       34.1        2.25        
C           37.03       31.78       5.92        
S           36.08       33.2        5.54        
C           36.26       30.64       6.15        
C           34.87       30.92       6.14        
C           34.64       32.25       5.79        
N           33.66       30.28       6.26        
C           32.67       31.13       5.87        
C           33.21       32.35       5.69        
C           33.51       28.86       6.41        
H           32.53       28.63       6.77        
H           34.27       28.62       7.21        
H           33.70438    28.40644    5.43809     
H           30.72       30.22       5.47        
H           36.67       29.68       6.37        
C           31.26       31.1        5.49        
S           31.96       33.58       5.28        
C           30.7        32.35       5.23        
C           48.14       30.64       4.16        
C           47.29       31.45       3.36        
C           47.56       29.96       5.23        
C           46.21       30.16       5.5         
C           45.38       31.08       4.8         
C           45.97       31.72       3.66        
N           45.39       29.46       6.47        
C           44.12       29.91       6.49        
C           43.99       31.03       5.48        
O           43.33       29.63       7.36        
C           45.8        28.25       7.15        
C           42.82       31.74       5.35        
C           41.36       31.5        5.59        
C           40.62       32.68       5.22        
N           41.51       33.67       4.66        
C           42.8        33.16       4.77        
C           40.58       30.45       6.13        
O           43.71       33.8        4.3         
C           41.19       35.09       4.38        
H           45.29       32.41       3.13        
H           48.15       29.23       5.75        
H           47.75       31.92       2.49        
H           38.85       33.75       5.19        
H           41.1        29.57       6.46        
H           38.68       29.72       6.67        
H           46.94       28.25       7.27        
H           45.31       28.18       8.14        
H           45.48371    27.37142    6.58771     
H           42.04       35.74       4.47        
H           40.72814    35.14515    3.39423     
H           40.61       35.36       5.23        
C           39.18       30.59       6.24        
C           39.25       32.83       5.45        
C           38.47       31.77       5.84        
C           55.4        30.06       1.52        
S           53.87       30.4        0.74        
C           55.17       29.94       2.86        
C           53.83       30.13       3.31        
C           52.99       30.33       2.2         
N           53.12       29.99       4.49        
C           51.77       30.19       4.13        
C           51.66       30.22       2.75        
C           53.7        29.63       5.75        
H           52.83       29.29       6.37        
H           54.08       30.5        6.27        
H           54.40997    28.80293    5.75        
H           50.2        30.1        5.81        
H           56.0        29.75       3.47        
C           50.46       30.19       4.74        
S           50.06       30.38       2.16        
C           49.49       30.37       3.85        
C           63.33       25.22       -4.84       
C           63.62       25.35       -3.44       
C           62.14       25.74       -5.41       
C           61.28       26.31       -4.53       
C           61.49       26.58       -3.13       
C           62.65       25.94       -2.57       
N           60.04       26.8        -4.99       
C           59.49       27.55       -3.91       
C           60.35       27.45       -2.66       
O           58.42       28.1        -3.99       
C           59.54       26.87       -6.38       
C           59.85       27.96       -1.44       
C           58.57       28.59       -0.88       
C           58.75       28.85       0.48        
N           59.97       28.35       0.88        
C           60.73       27.91       -0.17       
C           57.41       29.05       -1.41       
O           61.81       27.44       0.0         
C           60.36       28.27       2.3         
H           62.84       25.97       -1.51       
H           61.88       25.71       -6.46       
H           64.58       24.99       -2.95       
H           58.01       29.75       2.29        
H           57.21       28.99       -2.47       
H           55.46       29.77       -1.15       
H           59.93       26.11       -7.03       
H           58.46       26.88       -6.46       
H           59.84105    27.82787    -6.8042     
H           60.01       29.19       2.74        
H           60.08199    27.37014    2.84869     
H           61.45       28.37       2.19        
C           56.37       29.47       -0.65       
C           57.77       29.54       1.27        
C           56.52       29.73       0.7         
C           70.07       22.65       -7.58       
S           69.3        22.44       -6.04       
C           69.33       23.32       -8.53       
C           68.05       23.63       -8.04       
C           67.93       23.22       -6.73       
N           66.87       24.24       -8.44       
C           66.02       24.31       -7.36       
C           66.6        23.59       -6.27       
C           66.44       24.38       -9.84       
H           65.45       24.78       -9.83       
H           66.38       23.52       -10.34      
H           67.10816    25.04816    -10.38334   
H           64.25       25.59       -7.65       
H           69.64       23.44       -9.61       
C           64.79       24.88       -7.0        
S           65.63       23.61       -4.89       
C           64.42       24.58       -5.68       
C           80.46       18.11       -7.75       
C           79.75       18.01       -8.94       
C           79.83       18.53       -6.64       
C           78.51       18.88       -6.68       
C           77.75       18.9        -7.87       
C           78.38       18.31       -8.96       
N           77.8        19.44       -5.61       
C           76.51       19.77       -5.93       
C           76.43       19.61       -7.5        
O           75.67       20.29       -5.17       
C           78.11       19.26       -4.2        
C           75.26       20.03       -8.19       
C           74.04       20.8        -7.84       
C           73.14       20.84       -8.94       
N           73.83       20.2        -9.95       
C           75.06       19.64       -9.67       
C           73.56       21.57       -6.75       
O           75.58       18.72       -10.33      
C           73.47       20.33       -11.4       
H           77.86       18.43       -9.89       
H           80.35       18.69       -5.71       
H           80.17       17.76       -9.87       
H           71.26       21.42       -9.97       
H           74.19       21.69       -5.94       
H           71.96       22.67       -5.85       
H           79.15       19.05       -4.05       
H           77.9        20.14       -3.65       
H           77.51465    18.45203    -3.77475    
H           72.52       19.89       -11.54      
H           73.50528    21.35322    -11.774     
H           74.26       19.77       -11.96      
C           72.29       22.15       -6.75       
C           71.87       21.47       -8.99       
C           71.4        22.1        -7.77       
C           87.64       15.93       -9.03       
S           86.35       16.16       -10.17      
C           87.36       16.31       -7.73       
C           86.08       16.8        -7.61       
C           85.39       16.8        -8.81       
N           85.14       17.16       -6.6        
C           83.98       17.34       -7.26       
C           84.04       17.13       -8.61       
C           85.44       17.41       -5.15       
H           84.54       17.51       -4.58       
H           86.04       18.27       -5.09       
H           86.06827    16.62643    -4.72645    
H           82.41       17.69       -5.79       
H           88.07       16.31       -6.92       
C           82.69       17.64       -6.8        
S           82.54       17.35       -9.47       
C           81.85       17.76       -7.87       
C           97.49       12.8        -13.1       
C           96.36       13.05       -13.94      
C           97.3        12.83       -11.74      
C           96.05       13.07       -11.23      
C           94.92       13.28       -12.04      
C           95.16       13.34       -13.43      
N           95.75       13.18       -9.9        
C           94.42       13.53       -9.87       
C           93.77       13.55       -11.21      
O           93.88       13.63       -8.8        
C           96.25       12.2        -8.98       
C           92.44       13.81       -11.46      
C           91.39       14.39       -10.58      
C           90.23       14.39       -11.35      
N           90.4        13.9        -12.63      
C           91.75       13.56       -12.84      
C           91.25       14.85       -9.26       
O           92.19       13.08       -13.92      
C           89.42       13.75       -13.67      
H           94.34       13.67       -14.09      
H           98.14       12.52       -11.07      
H           96.41       13.16       -15.06      
H           88.05       14.79       -11.56      
H           92.1        14.91       -8.68       
H           90.01       15.74       -7.78       
H           96.88       11.4        -9.48       
H           95.47       11.61       -8.56       
H           96.85941    12.75338    -8.26551    
H           88.39       13.62       -13.22      
H           89.434      14.59696    -14.35597   
H           89.71       12.81       -14.15      
C           90.02       15.32       -8.78       
C           88.95       14.81       -10.87      
C           88.89       15.28       -9.49       
C           104.61      10.6        -15.82      
S           104.25      11.03       -14.2       
C           103.71      11.08       -16.67      
C           102.54      11.58       -15.99      
C           102.66      11.67       -14.62      
N           101.26      11.96       -16.27      
C           100.55      12.28       -15.17      
C           101.36      12.15       -14.08      
C           100.59      11.74       -17.57      
H           100.7       10.69       -17.85      
H           99.6        11.92       -17.43      
H           100.94234   12.33681    -18.41129   
H           98.44       12.96       -15.74      
H           103.87      11.01       -17.78      
C           99.19       12.65       -15.02      
S           100.3       12.4        -12.69      
C           98.84       12.54       -13.71      
C           113.24      4.17        -18.72      
C           113.35      5.56        -18.63      
C           111.95      3.64        -18.41      
C           111.02      4.45        -17.89      
C           111.19      5.83        -17.73      
C           112.37      6.32        -18.05      
N           109.71      4.06        -17.52      
C           109.03      5.23        -17.25      
C           109.92      6.43        -17.18      
O           107.89      5.2         -16.85      
C           109.13      2.77        -17.29      
C           109.5       7.71        -16.8       
C           108.16      8.33        -16.66      
C           108.24      9.61        -16.07      
N           109.57      9.93        -15.88      
C           110.37      8.9         -16.4       
C           106.83      7.94        -16.98      
O           111.56      8.9         -16.11      
C           110.07      11.3        -15.66      
H           112.53      7.33        -17.92      
H           111.75      2.54        -18.31      
H           114.29      6.1         -18.77      
H           107.23      11.33       -15.15      
H           106.62      7.02        -17.48      
H           104.77      8.4         -17.03      
H           108.26      2.89        -16.66      
H           109.94      2.22        -16.75      
H           108.77024   2.37426     -18.23977   
H           110.96      11.24       -15.05      
H           110.42112   11.75861    -16.58439   
H           109.26      11.9        -15.22      
C           105.74      8.75        -16.78      
C           107.11      10.39       -15.74      
C           105.9       9.99        -16.16      
C           118.92      -0.97       -18.6       
S           117.26      -1.14       -18.11      
C           119.2       0.23        -19.3       
C           118.07      1.03        -19.33      
C           116.94      0.47        -18.69      
N           117.8       2.26        -19.8       
C           116.46      2.49        -19.43      
C           115.92      1.42        -18.73      
C           118.78      3.21        -20.34      
H           119.7       2.7         -20.61      
H           118.47      3.7         -21.27      
H           119.02343   4.02621     -19.65982   
H           115.88      4.53        -20.09      
H           120.3       0.56        -19.5       
C           115.6       3.61        -19.6       
S           114.29      1.7         -18.28      
C           114.42      3.37        -18.89      
C           125.67      -9.67       -16.32      
C           126.15      -8.31       -16.21      
C           124.46      -9.84       -16.88      
C           123.73      -8.77       -17.32      
C           124.11      -7.4        -17.13      
C           125.35      -7.25       -16.54      
N           122.54      -8.77       -17.99      
C           121.98      -7.56       -18.25      
C           123.0       -6.5        -17.69      
O           120.95      -7.43       -18.89      
C           121.68      -9.92       -18.04      
C           122.85      -5.11       -17.78      
C           121.66      -4.2        -17.98      
C           122.05      -2.91       -17.94      
N           123.43      -2.84       -17.63      
C           123.95      -4.12       -17.63      
C           120.29      -4.42       -18.12      
O           125.16      -4.27       -17.46      
C           124.13      -1.77       -16.9       
H           125.75      -6.32       -16.28      
H           124.11      -10.88      -17.06      
H           127.11      -8.15       -15.65      
H           121.58      -0.75       -17.96      
H           119.89      -5.49       -18.21      
H           118.33      -3.57       -18.31      
H           120.64      -9.53       -18.02      
H           121.85      -10.43      -17.16      
H           121.89239   -10.55008   -18.90371   
H           123.79      -0.79       -17.19      
H           124.03966   -1.83949    -15.81597   
H           125.21      -1.81       -17.22      
C           119.41      -3.35       -18.32      
C           121.21      -1.81       -18.07      
C           119.83      -2.04       -18.26      
C           129.57      -16.42      -15.51      
S           128.03      -16.03      -16.31      
C           130.03      -15.32      -14.82      
C           129.36      -14.15      -15.08      
C           128.25      -14.34      -15.9       
N           129.47      -12.76      -14.87      
C           128.31      -12.14      -15.46      
C           127.57      -13.09      -16.07      
C           130.53      -11.98      -14.24      
H           130.13      -11.05      -13.91      
H           131.35      -11.7       -14.88      
H           130.93645   -12.50767   -13.37718   
H           128.38      -9.98       -15.21      
H           130.86      -15.37      -14.13      
C           127.81      -10.85      -15.55      
S           126.18      -12.37      -16.81      
C           126.64      -10.76      -16.27      
C           130.59      -27.36      -13.21      
C           131.28      -26.43      -12.46      
C           129.99      -26.86      -14.4       
C           130.15      -25.57      -14.81      
C           130.99      -24.64      -14.1       
C           131.56      -25.08      -12.9       
N           129.6       -24.96      -15.93      
C           130.13      -23.72      -16.11      
C           130.84      -23.31      -14.86      
O           129.8       -23.04      -17.07      
C           128.86      -25.63      -16.95      
C           131.21      -21.98      -14.62      
C           130.66      -20.65      -15.1       
C           131.41      -19.59      -14.51      
N           132.39      -20.17      -13.65      
C           132.28      -21.57      -13.63      
C           129.59      -20.2       -15.89      
O           132.98      -22.27      -12.96      
C           133.28      -19.37      -12.9       
H           132.03      -24.41      -12.17      
H           129.43      -27.56      -14.98      
H           131.68      -26.75      -11.5       
H           131.64      -17.46      -13.96      
H           129.04      -20.85      -16.56      
H           128.5       -18.67      -16.57      
H           129.04      -26.72      -16.95      
H           129.07      -25.24      -17.91      
H           127.79914   -25.57266   -16.70629   
H           132.79      -18.53      -12.42      
H           134.15415   -19.10426   -13.49442   
H           133.6       -20.03      -12.1       
C           129.34      -18.86      -16.01      
C           131.12      -18.2       -14.62      
C           130.03      -17.84      -15.42      
C           127.56      -34.32      -11.44      
S           127.72      -33.56      -13.05      
C           128.15      -33.56      -10.47      
C           128.75      -32.39      -10.95      
C           128.6       -32.24      -12.33      
N           129.52      -31.38      -10.37      
C           129.77      -30.56      -11.46      
C           129.2       -30.99      -12.61      
C           129.72      -31.12      -8.91       
H           130.48      -30.31      -8.82       
H           130.23      -31.95      -8.29       
H           128.77447   -30.8746    -8.42641    
H           130.98      -28.7       -10.74      
H           128.12      -33.76      -9.38       
C           130.41      -29.25      -11.53      
S           129.41      -29.8       -13.78      
C           130.22      -28.68      -12.74      
C           120.42      -42.36      -8.82       
C           120.1       -41.36      -9.69       
C           121.69      -42.37      -8.2        
C           122.55      -41.35      -8.5        
C           122.19      -40.26      -9.34       
C           120.94      -40.29      -9.87       
N           123.86      -41.23      -7.98       
C           124.41      -40.08      -8.56       
C           123.41      -39.42      -9.56       
O           125.54      -39.73      -8.23       
C           124.63      -42.16      -7.2        
C           123.77      -38.41      -10.39      
C           124.86      -37.45      -10.39      
C           124.73      -36.68      -11.57      
N           123.52      -37.01      -12.24      
C           122.91      -38.04      -11.63      
C           125.89      -37.03      -9.55       
O           122.01      -38.69      -12.19      
C           123.02      -36.29      -13.35      
H           120.7       -39.41      -10.4       
H           121.95      -43.18      -7.56       
H           119.08      -41.26      -10.03      
H           125.43      -35.24      -12.96      
H           126.04      -37.58      -8.57       
H           127.43      -35.64      -9.13       
H           124.95      -41.75      -6.3        
H           124.09      -43.04      -7.02       
H           125.5429    -42.43456   -7.72852    
H           123.26      -35.24      -13.41      
H           123.44067   -36.69641   -14.26977   
H           121.92      -36.53      -13.35      
C           126.72      -35.96      -9.86       
C           125.64      -35.71      -12.0       
C           126.69      -35.4       -11.17      
C           115.52      -47.53      -5.51       
S           116.97      -46.8       -4.9        
C           115.28      -47.18      -6.77       
C           116.24      -46.23      -7.25       
C           117.24      -45.92      -6.38       
N           116.43      -45.38      -8.37       
C           117.54      -44.65      -8.23       
C           118.18      -45.0       -7.04       
C           115.47      -45.22      -9.46       
H           116.02      -44.68      -10.25      
H           114.67      -44.47      -9.15       
H           115.06719   -46.13675   -9.89059    
H           117.99      -43.3       -10.04      
H           114.39      -47.45      -7.33       
C           118.26      -43.7       -9.01       
S           119.69      -44.13      -6.8        
C           119.46      -43.35      -8.35       
C           108.74      -52.47      1.94        
C           110.08      -52.23      2.28        
C           108.35      -52.34      0.59        
C           109.2       -51.9       -0.34       
C           110.54      -51.61      -0.04       
C           110.99      -51.83      1.31        
N           108.91      -51.68      -1.68       
C           110.05      -51.14      -2.27       
C           111.16      -51.01      -1.23       
O           110.03      -50.76      -3.39       
C           107.72      -51.87      -2.43       
C           112.35      -50.29      -1.57       
C           112.93      -49.76      -2.78       
C           114.14      -49.18      -2.5        
N           114.45      -49.28      -1.14       
C           113.45      -49.99      -0.55       
C           112.61      -49.75      -4.17       
O           113.48      -50.26      0.61        
C           115.33      -48.42      -0.41       
H           111.98      -51.72      1.58        
H           107.32      -52.47      0.29        
H           110.43      -52.49      3.28        
H           115.89      -48.09      -2.88       
H           111.73      -50.1       -4.54       
H           113.15      -48.95      -6.04       
H           108.03      -52.43      -3.34       
H           107.02      -52.39      -1.85       
H           107.3158    -50.89558   -2.70428    
H           115.04      -48.26      0.63        
H           116.34755   -48.80926   -0.37585    
H           115.34      -47.43      -0.82       
C           113.49      -49.07      -5.0        
C           115.0       -48.48      -3.28       
C           114.72      -48.42      -4.61       
C           103.0       -54.48      6.99        
S           102.93      -54.0       5.24        
C           104.24      -54.34      7.46        
C           105.21      -53.97      6.43        
C           104.62      -53.76      5.18        
N           106.58      -53.76      6.42        
C           106.88      -53.48      5.12        
C           105.7       -53.41      4.35        
C           107.54      -53.79      7.47        
H           108.28      -53.08      7.3         
H           108.08      -54.77      7.51        
H           107.20133   -53.37927   8.42116     
H           108.98      -53.24      4.78        
H           104.48      -54.27      8.54        
C           107.99      -53.3       4.32        
S           106.07      -52.92      2.69        
C           107.73      -52.8       3.05        
H           18.97       34.57       2.58        
H           102.28      -55.16      7.41        
