512

C           22.39       29.31       1.15        
C           21.38       28.63       1.87        
C           22.21       30.68       0.93        
C           20.98       31.24       1.22        
C           19.92       30.56       1.88        
C           20.2        29.21       2.31        
N           20.54       32.54       0.9         
C           19.25       32.77       1.27        
C           18.72       31.43       1.84        
O           18.68       33.77       0.97        
C           21.3        33.56       0.22        
C           17.37       31.34       2.22        
C           16.1        32.18       2.25        
C           14.92       31.34       2.42        
N           15.36       30.07       2.62        
C           16.74       29.94       2.44        
C           15.83       33.55       2.05        
O           17.27       28.84       2.39        
C           14.57       28.9        3.1         
H           19.52       28.55       2.83        
H           23.0        31.2        0.42        
H           21.4        27.62       2.06        
H           12.78       31.14       2.5         
H           16.59       34.21       2.14        
H           14.33       35.12       2.18        
H           22.04       33.08       -0.38       
H           20.71       34.25       -0.38       
H           21.64112    34.34457    0.89541     
H           13.65       28.94       2.58        
H           14.46229    28.87128    4.18428     
H           15.0        27.96       2.76        
C           14.55       34.08       2.25        
C           13.64       31.84       2.53        
C           13.46       33.19       2.47        
C           29.87       26.98       1.0         
S           29.12       28.44       0.3         
C           28.96       26.22       1.64        
C           27.65       26.7        1.42        
C           27.49       27.89       0.7         
N           26.38       26.25       1.81        
C           25.5        27.26       1.52        
C           26.12       28.25       0.78        
C           26.04       24.87       2.26        
H           25.03       24.91       2.56        
H           26.63       24.65       3.15        
H           26.32605    24.19521    1.45319     
H           23.51       26.73       2.22        
H           29.25       25.28       2.15        
C           24.1        27.49       1.65        
S           25.05       29.54       0.32        
C           23.73       28.67       1.03        
C           41.16       25.92       0.72        
C           40.46       26.89       0.01        
C           40.37       25.06       1.5         
C           39.02       25.18       1.62        
C           38.29       26.25       0.93        
C           39.07       27.12       0.05        
N           38.15       24.45       2.36        
C           36.87       24.97       2.24        
C           36.86       26.08       1.17        
O           35.92       24.45       2.87        
C           38.53       23.27       3.22        
C           35.71       26.77       0.83        
C           34.22       26.55       0.95        
C           33.54       27.64       0.34        
N           34.44       28.57       -0.18       
C           35.72       28.14       0.14        
C           33.33       25.57       1.5         
O           36.69       28.79       -0.21       
C           34.15       29.98       -0.43       
H           38.59       27.84       -0.57       
H           40.91       24.3        2.04        
H           41.04       27.51       -0.65       
H           31.7        28.68       -0.14       
H           33.78       24.72       2.03        
H           31.36       25.01       2.12        
H           39.58       23.31       3.43        
H           37.99       23.19       4.24        
H           38.30112    22.38222    2.63046     
H           35.03       30.57       -0.16       
H           33.91673    30.17793    -1.47619    
H           33.46       30.32       0.31        
C           31.94       25.78       1.63        
C           32.16       27.86       0.39        
C           31.36       26.85       1.01        
C           49.06       26.39       0.14        
S           47.82       27.48       -0.47       
C           48.48       25.29       0.73        
C           47.04       25.39       0.87        
C           46.51       26.47       0.12        
N           46.08       24.58       1.41        
C           44.87       25.25       1.07        
C           45.07       26.31       0.2         
C           46.26       23.56       2.44        
H           45.24       23.31       2.78        
H           46.78       23.94       3.28        
H           46.71286    22.65427    2.03667     
H           43.22       24.34       2.1         
H           49.05       24.45       1.14        
C           43.55       25.03       1.39        
S           43.6        27.05       -0.28       
C           42.66       25.85       0.64        
C           59.53       25.0        -2.85       
C           59.2        24.75       -1.5        
C           58.69       25.8        -3.64       
C           57.45       26.18       -3.14       
C           57.02       25.87       -1.8        
C           58.0        25.21       -0.98       
N           56.58       27.07       -3.77       
C           55.4        27.15       -3.03       
C           55.64       26.41       -1.72       
O           54.47       27.85       -3.43       
C           56.59       27.68       -5.09       
C           54.76       26.37       -0.65       
C           53.34       26.62       -0.65       
C           52.79       26.39       0.63        
N           53.75       25.87       1.45        
C           55.0        25.85       0.77        
C           52.36       27.04       -1.58       
O           56.02       25.41       1.29        
C           53.58       25.45       2.84        
H           57.76       24.97       0.01        
H           59.03       26.1        -4.68       
H           59.93       24.26       -0.83       
H           51.12       26.16       1.99        
H           52.62       26.99       -2.6        
H           50.29       27.0        -2.19       
H           57.35       27.29       -5.72       
H           55.67       27.45       -5.58       
H           56.76719    28.75023    -4.98369    
H           52.96       26.19       3.37        
H           53.22214    24.43367    3.00462     
H           54.53       25.62       3.37        
C           50.96       27.03       -1.26       
C           51.44       26.48       0.98        
C           50.49       26.66       -0.02       
C           66.38       21.57       -4.4        
S           65.37       21.64       -2.99       
C           65.78       22.16       -5.45       
C           64.5        22.71       -5.1        
C           64.14       22.51       -3.78       
N           63.39       23.29       -5.75       
C           62.46       23.61       -4.75       
C           62.9        23.13       -3.53       
C           63.37       23.74       -7.16       
H           62.54       24.4        -7.26       
H           63.2        22.93       -7.87       
H           64.22988    24.3594     -7.41505    
H           60.71       24.7        -5.5        
H           66.19       22.13       -6.48       
C           61.17       24.29       -4.65       
S           61.83       23.56       -2.25       
C           60.77       24.44       -3.38       
C           76.55       16.53       -4.22       
C           76.11       17.29       -5.28       
C           75.65       16.21       -3.22       
C           74.35       16.77       -3.33       
C           73.9        17.65       -4.43       
C           74.85       17.88       -5.44       
N           73.32       16.57       -2.41       
C           72.28       17.39       -2.7        
C           72.55       18.14       -4.02       
O           71.34       17.52       -1.95       
C           73.36       15.73       -1.21       
C           71.69       19.1        -4.57       
C           70.3        19.52       -4.27       
C           69.94       20.54       -5.13       
N           71.0        20.73       -6.02       
C           72.04       19.92       -5.76       
C           69.27       19.2        -3.35       
O           73.1        20.01       -6.37       
C           70.88       21.78       -7.06       
H           74.64       18.43       -6.37       
H           76.02       15.68       -2.38       
H           76.76       17.47       -6.04       
H           68.68       22.11       -5.91       
H           69.38       18.46       -2.67       
H           67.36       19.53       -2.78       
H           74.22       15.19       -1.08       
H           73.14       16.34       -0.38       
H           72.60527    14.94679    -1.1388     
H           69.89       22.1        -7.37       
H           71.35927    22.72464    -6.803      
H           71.36       21.4        -7.94       
C           68.07       19.93       -3.49       
C           68.78       21.3        -5.21       
C           67.72       20.95       -4.37       
C           83.41       13.29       -5.75       
S           81.96       13.57       -6.75       
C           83.09       13.53       -4.42       
C           81.82       14.03       -4.19       
C           81.14       14.21       -5.38       
N           81.09       14.63       -3.12       
C           79.86       15.0        -3.66       
C           79.91       14.83       -5.05       
C           81.43       14.56       -1.75       
H           80.71       15.03       -1.1        
H           82.42       14.94       -1.48       
H           81.46662    13.51281    -1.44976    
H           78.42       15.78       -2.22       
H           83.91       13.55       -3.77       
C           78.61       15.55       -3.24       
S           78.46       15.42       -5.82       
C           77.77       15.8        -4.27       
C           93.46       11.97       -10.61      
C           92.54       12.78       -11.22      
C           93.16       11.41       -9.42       
C           91.95       11.62       -8.88       
C           90.9        12.36       -9.48       
C           91.27       13.04       -10.7       
N           91.51       11.12       -7.63       
C           90.14       11.45       -7.43       
C           89.71       12.37       -8.54       
O           89.59       11.05       -6.46       
C           92.2        10.35       -6.66       
C           88.46       12.96       -8.58       
C           87.3        12.96       -7.64       
C           86.15       13.51       -8.33       
N           86.47       13.83       -9.65       
C           87.81       13.54       -9.82       
C           87.13       12.61       -6.29       
O           88.22       13.53       -10.96      
C           85.61       13.63       -10.88      
H           90.61       13.72       -11.26      
H           93.93       10.79       -8.98       
H           92.81       13.37       -12.1       
H           83.99       14.04       -8.34       
H           87.86       12.09       -5.66       
H           85.65       12.33       -4.72       
H           92.79       9.61        -7.14       
H           91.51       9.76        -6.06       
H           92.77957    10.97097    -5.97693    
H           84.59       13.51       -10.53      
H           85.65259    14.51725    -11.51172   
H           85.97       12.77       -11.48      
C           85.8        12.71       -5.73       
C           84.83       13.68       -7.78       
C           84.67       13.25       -6.44       
C           100.15      9.12        -13.21      
S           99.12       8.73        -11.83      
C           99.65       10.16       -13.94      
C           98.41       10.67       -13.44      
C           98.09       10.05       -12.25      
N           97.42       11.6        -13.8       
C           96.54       11.67       -12.7       
C           96.91       10.7        -11.75      
C           97.3        12.34       -15.1       
H           97.06       11.58       -15.86      
H           96.46       12.99       -15.22      
H           98.1843     12.86913    -15.45517   
H           94.83       13.08       -13.05      
H           100.14      10.5        -14.93      
C           95.3        12.32       -12.38      
S           95.82       10.65       -10.48      
C           94.76       11.8        -11.25      
C           108.8       2.66        -16.35      
C           108.68      4.02        -16.8       
C           107.73      2.05        -15.62      
C           106.68      2.89        -15.24      
C           106.58      4.28        -15.63      
C           107.67      4.9         -16.34      
N           105.63      2.54        -14.42      
C           104.73      3.56        -14.31      
C           105.31      4.77        -15.06      
O           103.69      3.47        -13.67      
C           105.35      1.32        -13.68      
C           104.74      6.0         -14.98      
C           103.4       6.48        -14.53      
C           103.43      7.89        -14.49      
N           104.73      8.35        -14.86      
C           105.53      7.28        -15.1       
C           102.13      6.0         -14.13      
O           106.73      7.49        -15.27      
C           105.37      9.68        -14.88      
H           107.54      5.85        -16.75      
H           107.82      1.07        -15.18      
H           109.37      4.47        -17.54      
H           102.51      9.8         -14.37      
H           101.85      4.99        -14.14      
H           100.18      6.42        -13.34      
H           104.51      1.51        -13.14      
H           106.17      1.32        -12.99      
H           105.3135    0.4147      -14.28597   
H           106.37      9.64        -14.5       
H           105.40441   10.16171    -15.85718   
H           104.75      10.36       -14.34      
C           101.15      6.89        -13.68      
C           102.4       8.74        -14.19      
C           101.29      8.25        -13.57      
C           115.0       -2.0        -17.23      
S           113.28      -2.36       -17.08      
C           115.25      -0.66       -17.22      
C           114.05      0.13        -17.09      
C           112.95      -0.67       -16.95      
N           113.68      1.48        -17.1       
C           112.36      1.45        -16.86      
C           111.81      0.17        -16.71      
C           114.57      2.56        -17.14      
H           114.25      3.32        -16.54      
H           115.59      2.23        -16.88      
H           114.59962   2.93771     -18.16204   
H           111.53      3.54        -16.77      
H           116.28      -0.23       -17.32      
C           111.39      2.47        -16.56      
S           110.07      0.25        -16.45      
C           110.09      2.0         -16.5       
C           122.8       -9.68       -19.68      
C           123.06      -8.58       -18.84      
C           121.57      -9.65       -20.32      
C           120.61      -8.72       -19.97      
C           120.88      -7.71       -18.98      
C           122.11      -7.66       -18.39      
N           119.32      -8.61       -20.48      
C           118.68      -7.58       -19.91      
C           119.71      -6.81       -19.01      
O           117.58      -7.3        -20.23      
C           119.03      -9.14       -21.76      
C           119.4       -5.62       -18.36      
C           118.09      -4.98       -18.04      
C           118.36      -3.76       -17.41      
N           119.73      -3.59       -17.36      
C           120.46      -4.72       -17.73      
C           116.68      -5.29       -18.31      
O           121.63      -4.77       -17.8       
C           120.44      -2.36       -17.05      
H           122.37      -6.98       -17.6       
H           121.28      -10.31      -21.19      
H           124.07      -8.56       -18.29      
H           117.71      -1.82       -16.82      
H           116.28      -6.24       -18.67      
H           114.67      -4.6        -18.19      
H           119.93      -9.34       -22.4       
H           118.42      -8.49       -22.25      
H           118.40441   -10.02278   -21.62793   
H           119.85      -1.57       -17.39      
H           120.69575   -2.35269    -15.99045   
H           121.34      -2.31       -17.68      
C           115.72      -4.29       -18.0       
C           117.41      -2.8        -17.19      
C           116.03      -3.06       -17.45      
C           126.79      -16.3       -20.55      
S           125.3       -15.7       -21.37      
C           127.38      -15.32      -19.77      
C           126.64      -14.09      -19.82      
C           125.44      -14.16      -20.57      
N           126.75      -12.81      -19.32      
C           125.59      -12.11      -19.66      
C           124.72      -12.96      -20.35      
C           127.81      -12.21      -18.62      
H           127.65      -11.13      -18.41      
H           128.76      -12.13      -19.15      
H           128.01596   -12.68584   -17.66122   
H           125.41      -10.09      -18.6       
H           128.25      -15.54      -19.13      
C           125.02      -10.89      -19.26      
S           123.29      -12.11      -20.72      
C           123.82      -10.71      -19.86      
C           128.75      -27.2       -18.89      
C           129.71      -26.27      -18.62      
C           127.68      -26.99      -19.74      
C           127.49      -25.65      -20.13      
C           128.38      -24.57      -19.78      
C           129.51      -24.94      -19.04      
N           126.42      -25.09      -20.83      
C           126.51      -23.73      -20.92      
C           127.83      -23.26      -20.33      
O           125.61      -23.01      -21.45      
C           125.34      -25.85      -21.47      
C           128.22      -21.96      -20.35      
C           127.61      -20.61      -20.43      
C           128.6       -19.59      -20.16      
N           129.82      -20.16      -19.93      
C           129.66      -21.55      -20.0       
C           126.36      -20.11      -20.73      
O           130.61      -22.26      -19.72      
C           130.78      -19.6       -19.08      
H           130.27      -24.28      -18.68      
H           126.87      -27.75      -19.89      
H           130.53      -26.54      -17.95      
H           129.19      -17.62      -19.72      
H           125.58      -20.77      -20.91      
H           125.2       -18.44      -21.03      
H           124.39      -25.3       -21.43      
H           125.16      -26.86      -20.95      
H           125.64782   -26.28374   -22.42143   
H           130.4       -19.1       -18.21      
H           131.43852   -18.94849   -19.65445   
H           131.38      -20.36      -18.67      
C           126.18      -18.73      -20.74      
C           128.38      -18.27      -20.11      
C           127.13      -17.75      -20.46      
C           127.52      -33.57      -14.75      
S           127.45      -33.35      -16.51      
C           127.98      -32.47      -14.09      
C           128.31      -31.4       -15.0       
C           128.04      -31.71      -16.33      
N           128.84      -30.1       -14.89      
C           128.83      -29.62      -16.18      
C           128.38      -30.61      -17.07      
C           129.15      -29.41      -13.68      
H           129.11      -28.31      -13.89      
H           130.16      -29.64      -13.29      
H           128.48531   -29.61952   -12.84191   
H           129.52      -27.53      -16.31      
H           128.04      -32.42      -13.01      
C           129.05      -28.38      -16.81      
S           128.2       -30.01      -18.64      
C           128.79      -28.41      -18.16      
C           121.78      -41.1       -8.84       
C           121.94      -41.29      -10.23      
C           122.63      -40.14      -8.24       
C           123.36      -39.28      -9.04       
C           123.58      -39.48      -10.41      
C           122.77      -40.52      -11.0       
N           124.31      -38.33      -8.54       
C           124.97      -37.71      -9.56       
C           124.58      -38.44      -10.85      
O           125.74      -36.87      -9.29       
C           124.5       -37.99      -7.15       
C           124.87      -37.94      -12.18      
C           125.74      -36.88      -12.72      
C           125.36      -36.59      -14.03      
N           124.27      -37.42      -14.4       
C           123.94      -38.29      -13.36      
C           126.76      -36.13      -12.15      
O           122.93      -38.97      -13.42      
C           123.61      -37.52      -15.66      
H           122.92      -40.86      -12.03      
H           122.55      -39.93      -7.19       
H           121.41      -42.05      -10.75      
H           125.59      -35.32      -15.78      
H           127.24      -36.5       -11.27      
H           128.11      -34.54      -12.38      
H           124.57      -36.88      -7.01       
H           123.79      -38.27      -6.47       
H           125.44493   -38.42555   -6.82518    
H           123.71      -36.62      -16.22      
H           124.09131   -38.34933   -16.17833   
H           122.52      -37.72      -15.52      
C           127.33      -35.1       -12.89      
C           125.9       -35.54      -14.78      
C           126.94      -34.76      -14.15      
C           116.74      -44.52      -4.1        
S           118.04      -43.38      -3.7        
C           116.67      -44.83      -5.38       
C           117.65      -44.14      -6.1        
C           118.4       -43.28      -5.38       
N           117.84      -43.92      -7.46       
C           118.95      -43.11      -7.54       
C           119.3       -42.66      -6.25       
C           117.0       -44.31      -8.61       
H           117.68      -44.36      -9.49       
H           116.21      -43.6       -8.79       
H           116.53654   -45.29486   -8.55207    
H           119.8       -42.88      -9.61       
H           115.9       -45.43      -5.81       
C           119.85      -42.6       -8.52       
S           120.67      -41.61      -6.38       
C           120.87      -41.87      -8.1        
C           109.59      -47.97      3.97        
C           110.88      -47.5       4.3         
C           109.31      -48.21      2.62        
C           110.28      -47.9       1.66        
C           111.52      -47.25      1.95        
C           111.76      -47.06      3.34        
N           110.26      -48.08      0.27        
C           111.36      -47.56      -0.33       
C           112.23      -46.91      0.65        
O           111.53      -47.75      -1.51       
C           109.3       -48.99      -0.43       
C           113.4       -46.18      0.31        
C           114.19      -46.03      -0.91       
C           115.18      -44.98      -0.71       
N           115.03      -44.52      0.58        
C           113.99      -45.16      1.27        
C           114.28      -46.56      -2.15       
O           113.73      -44.67      2.37        
C           115.9       -43.51      1.16        
H           112.7       -46.68      3.67        
H           108.49      -48.81      2.37        
H           111.1       -47.31      5.34        
H           116.74      -43.57      -1.5        
H           113.62      -47.34      -2.48       
H           114.96      -46.58      -4.1        
H           109.81      -49.84      -0.97       
H           108.79      -49.54      0.38        
H           108.57324   -48.5218    -1.09386    
H           115.38      -43.01      1.96        
H           116.91178   -43.86834   1.34971     
H           115.82      -42.78      0.41        
C           115.16      -46.09      -3.14       
C           116.06      -44.44      -1.66       
C           115.95      -44.97      -2.96       
C           104.11      -50.66      8.96        
S           104.01      -50.2       7.31        
C           105.32      -50.14      9.45        
C           106.14      -49.55      8.49        
C           105.64      -49.52      7.26        
N           107.43      -49.09      8.5         
C           107.74      -48.76      7.16        
C           106.65      -49.07      6.33        
C           108.31      -49.07      9.64        
H           109.28      -48.55      9.35        
H           108.59      -50.07      9.93        
H           107.81744   -48.54889   10.46093    
H           109.95      -48.3       6.81        
H           105.58      -50.27      10.52       
C           108.95      -48.44      6.4         
S           107.04      -48.74      4.62        
C           108.73      -48.38      5.05        
H           12.46       33.52       2.55        
H           103.24      -50.97      9.62        
