512

C           22.12       29.2        42.45       
C           21.01       28.7        42.96       
C           22.24       30.53       42.04       
C           21.18       31.39       42.33       
C           19.94       30.94       42.85       
C           19.93       29.53       43.19       
N           21.18       32.75       42.12       
C           19.88       33.28       42.43       
C           19.05       32.15       42.92       
O           19.52       34.39       42.08       
C           22.45       33.45       41.84       
C           17.67       32.23       43.22       
C           16.71       33.44       43.42       
C           15.44       32.89       43.65       
N           15.55       31.46       43.62       
C           16.78       31.01       43.28       
C           16.8        34.83       43.49       
O           16.98       29.85       43.02       
C           14.4        30.64       43.83       
H           19.1        29.07       43.66       
H           23.18       30.95       41.65       
H           20.99       27.64       43.27       
H           13.39       33.19       44.29       
H           17.74       35.25       43.5        
H           15.88       36.66       43.7        
H           23.38       33.0        42.36       
H           22.68       33.46       40.8        
H           22.51359    34.48159    42.18622    
H           13.6        31.01       43.2        
H           14.12316    30.57079    44.88198    
H           14.65       29.61       43.45       
C           15.7        35.61       43.61       
C           14.27       33.63       43.92       
C           14.44       35.05       43.89       
C           28.99       25.74       40.91       
S           28.57       27.45       41.12       
C           27.97       24.9        41.3        
C           26.75       25.69       41.48       
C           26.92       27.09       41.53       
N           25.42       25.38       41.81       
C           24.75       26.6        41.94       
C           25.64       27.64       41.79       
C           24.82       24.09       42.09       
H           23.77       24.18       41.76       
H           24.82       23.85       43.19       
H           25.23922    23.27999    41.49315    
H           22.55       26.35       42.37       
H           28.03       23.78       41.31       
C           23.41       26.95       42.3        
S           24.83       29.11       42.12       
C           23.29       28.31       42.31       
C           39.45       22.85       38.84       
C           39.03       24.18       38.78       
C           38.51       21.84       39.26       
C           37.2        22.19       39.47       
C           36.76       23.52       39.35       
C           37.68       24.51       38.87       
N           36.17       21.35       39.94       
C           35.03       22.12       40.11       
C           35.31       23.54       39.69       
O           33.95       21.73       40.53       
C           36.18       19.87       39.93       
C           34.38       24.58       39.74       
C           32.91       24.63       39.77       
C           32.56       26.01       39.95       
N           33.59       26.82       39.95       
C           34.74       26.06       39.92       
C           31.87       23.73       39.59       
O           35.84       26.65       39.94       
C           33.55       28.21       39.77       
H           37.32       25.47       38.66       
H           38.87       20.82       39.39       
H           39.71       25.01       38.45       
H           30.98       27.42       40.5        
H           32.09       22.7        39.25       
H           29.88       23.23       40.08       
H           37.2        19.55       39.85       
H           35.68       19.49       40.77       
H           35.6145     19.43335    39.10681    
H           34.24       28.6        40.48       
H           33.8316     28.48474    38.75348    
H           32.6        28.64       40.04       
C           30.59       24.09       39.9        
C           31.23       26.4        40.23       
C           30.24       25.39       40.29       
C           47.11       22.42       37.17       
S           45.94       23.66       37.03       
C           46.48       21.34       37.68       
C           45.06       21.48       37.81       
C           44.61       22.74       37.62       
N           44.02       20.66       38.02       
C           42.86       21.51       38.11       
C           43.22       22.86       37.95       
C           44.08       19.31       38.42       
H           43.09       18.93       38.6        
H           44.69       19.3        39.31       
H           44.60422    18.72587    37.66363    
H           40.92       20.48       38.53       
H           46.98       20.33       37.82       
C           41.46       21.39       38.37       
S           41.85       23.94       38.09       
C           40.85       22.58       38.61       
C           57.93       24.14       35.13       
C           57.52       23.04       35.86       
C           56.99       24.98       34.49       
C           55.66       24.64       34.71       
C           55.21       23.54       35.45       
C           56.16       22.73       36.03       
N           54.55       25.4        34.36       
C           53.37       24.8        34.62       
C           53.76       23.64       35.49       
O           52.25       25.16       34.35       
C           54.62       26.73       33.76       
C           52.74       22.86       36.0        
C           51.35       23.04       36.4        
C           50.81       21.79       36.77       
N           51.76       20.84       36.81       
C           53.01       21.41       36.44       
C           50.4        24.09       36.32       
O           53.98       20.68       36.35       
C           51.6        19.4        36.71       
H           55.93       21.86       36.59       
H           57.26       25.83       33.93       
H           58.17       22.26       36.2        
H           49.14       20.69       37.58       
H           50.63       25.06       35.92       
H           48.3        24.59       36.4        
H           55.67       27.1        33.78       
H           54.31       26.74       32.76       
H           54.05521    27.50142    34.28347    
H           52.27       19.0        35.94       
H           51.6492     18.86583    37.65886    
H           50.61       19.15       36.29       
C           49.06       23.85       36.57       
C           49.5        21.64       37.23       
C           48.56       22.65       37.01       
C           65.77       23.89       34.45       
S           64.62       23.18       35.56       
C           65.12       24.9        33.77       
C           63.74       25.01       33.97       
C           63.27       24.01       34.85       
N           62.62       25.77       33.55       
C           61.5        25.1        34.13       
C           61.84       24.05       34.89       
C           62.59       26.84       32.52       
H           61.51       27.17       32.29       
H           62.95       26.42       31.63       
H           63.1471     27.7356     32.79503    
H           59.52       25.92       33.48       
H           65.62       25.58       33.08       
C           60.04       25.24       34.13       
S           60.52       23.26       35.7        
C           59.41       24.31       34.87       
C           76.67       23.67       36.55       
C           76.18       24.49       35.54       
C           75.88       22.66       37.13       
C           74.52       22.72       36.82       
C           73.93       23.6        35.85       
C           74.84       24.52       35.26       
N           73.55       21.91       37.3        
C           72.32       22.18       36.71       
C           72.46       23.25       35.7        
O           71.31       21.62       37.15       
C           73.84       20.58       37.88       
C           71.4        23.64       34.92       
C           70.0        23.63       35.07       
C           69.5        24.11       33.86       
N           70.46       24.6        32.96       
C           71.7        24.39       33.58       
C           69.01       23.17       36.01       
O           72.75       24.76       33.09       
C           70.4        24.65       31.55       
H           74.45       25.28       34.57       
H           76.31       22.02       37.94       
H           76.79       25.2        34.97       
H           67.78       24.43       32.68       
H           69.32       22.75       36.96       
H           67.01       22.76       36.56       
H           74.83       20.32       38.12       
H           73.51       20.53       38.94       
H           73.41471    19.74384    37.32496    
H           69.62       24.06       31.13       
H           70.2327     25.62473    31.09173    
H           71.37       24.24       31.13       
C           67.65       23.23       35.78       
C           68.13       24.09       33.62       
C           67.17       23.62       34.53       
C           84.28       22.87       35.25       
S           83.01       23.48       34.3        
C           83.88       22.75       36.59       
C           82.44       22.98       36.78       
C           81.85       23.45       35.58       
N           81.48       22.91       37.8        
C           80.3        23.19       37.17       
C           80.45       23.61       35.84       
C           81.67       22.34       39.13       
H           80.74       22.36       39.6        
H           82.3        23.0        39.76       
H           82.10188    21.34172    39.0592     
H           78.47       22.92       38.48       
H           84.59       22.41       37.3        
C           78.91       23.21       37.54       
S           78.92       23.91       35.06       
C           78.11       23.56       36.55       
C           94.17       19.62       30.86       
C           93.42       20.66       30.27       
C           93.62       19.08       32.01       
C           92.43       19.56       32.52       
C           91.7        20.61       31.91       
C           92.24       21.2        30.78       
N           91.85       19.22       33.71       
C           90.61       19.79       33.87       
C           90.46       20.79       32.73       
O           89.91       19.5        34.87       
C           92.45       18.52       34.81       
C           89.27       21.57       32.67       
C           88.08       21.69       33.53       
C           87.28       22.66       32.95       
N           87.77       23.15       31.77       
C           88.95       22.56       31.57       
C           87.55       21.25       34.77       
O           89.48       22.65       30.48       
C           86.97       23.75       30.68       
H           91.67       22.0        30.25       
H           94.18       18.42       32.62       
H           93.74       21.02       29.3        
H           85.42       23.73       32.99       
H           88.1        20.71       35.49       
H           85.97       21.26       36.23       
H           93.03       17.66       34.45       
H           91.66       17.97       35.37       
H           92.91445    19.18764    35.5357     
H           85.96       23.37       30.81       
H           86.89949    24.83586    30.74346    
H           87.36       23.49       29.73       
C           86.3        21.66       35.29       
C           86.06       23.07       33.49       
C           85.57       22.55       34.68       
C           100.58      16.19       28.14       
S           99.51       15.67       29.34       
C           100.06      17.29       27.53       
C           98.91       17.8        28.07       
C           98.47       17.0        29.09       
N           98.0        18.83       27.76       
C           97.17       18.81       28.8        
C           97.41       17.71       29.66       
C           98.34       19.82       26.84       
H           98.49       20.82       27.32       
H           99.31       19.66       26.31       
H           97.52596    19.94967    26.12682    
H           95.49       20.38       28.49       
H           100.63      17.76       26.74       
C           96.02       19.59       29.16       
S           96.22       17.68       30.97       
C           95.41       19.11       30.28       
C           110.69      11.39       27.54       
C           110.5       12.71       27.21       
C           109.52      10.6        27.57       
C           108.3       11.25       27.49       
C           108.11      12.64       27.34       
C           109.26      13.37       27.07       
N           107.03      10.63       27.48       
C           105.95      11.51       27.28       
C           106.62      12.94       27.33       
O           104.78      11.19       27.16       
C           106.7       9.29        27.93       
C           105.86      14.06       27.31       
C           104.4       14.3        27.52       
C           104.23      15.69       27.52       
N           105.4       16.32       27.2        
C           106.45      15.46       27.15       
C           103.21      13.59       27.87       
O           107.57      15.86       27.23       
C           105.59      17.7        26.94       
H           109.2       14.38       26.84       
H           109.64      9.52        27.6        
H           111.35      13.4        27.06       
H           102.9       17.34       27.48       
H           103.29      12.5        28.03       
H           101.05      13.55       28.25       
H           105.66      9.22        28.3        
H           107.41      9.06        28.72       
H           106.88319   8.59247     27.11269    
H           106.46      18.02       27.49       
H           105.61804   17.95933    25.88167    
H           104.82      18.21       27.45       
C           101.96      14.18       28.07       
C           102.99      16.31       27.65       
C           101.86      15.53       27.96       
C           117.08      6.97        28.76       
S           115.67      6.74        27.71       
C           117.03      8.26        29.27       
C           115.82      8.95        28.95       
C           114.95      8.27        28.06       
N           115.24      10.12       29.44       
C           114.06      10.31       28.73       
C           113.86      9.19        27.89       
C           115.96      11.11       30.32       
H           117.04      10.92       30.27       
H           115.83      12.21       30.06       
H           115.67455   10.87892    31.34627    
H           112.85      12.1        29.25       
H           117.82      8.57        29.95       
C           112.99      11.2        28.62       
S           112.35      9.24        27.04       
C           112.04      10.8        27.7        
C           123.61      -1.37       33.01       
C           123.95      -0.01       33.0        
C           122.37      -1.67       32.44       
C           121.57      -0.63       31.89       
C           121.88      0.74        31.87       
C           123.12      0.97        32.49       
N           120.32      -0.77       31.27       
C           119.85      0.44        30.76       
C           120.78      1.58        31.29       
O           118.86      0.42        30.12       
C           119.73      -2.01       30.79       
C           120.57      2.96        30.99       
C           119.48      3.72        30.32       
C           119.94      5.03        30.32       
N           121.1       5.24        31.0        
C           121.57      4.03        31.45       
C           118.29      3.49        29.67       
O           122.6       4.0         32.07       
C           122.01      6.45        30.86       
H           123.57      1.95        32.4        
H           122.03      -2.71       32.38       
H           124.86      0.34        33.4        
H           119.62      7.03        29.85       
H           117.93      2.38        29.76       
H           116.45      4.32        28.87       
H           120.54      -2.66       30.65       
H           119.35      -1.81       29.79       
H           119.08523   -2.44678    31.55263    
H           121.75      6.97        29.97       
H           121.90195   7.14153     31.69559    
H           123.04      6.04        30.8        
C           117.46      4.54        29.12       
C           119.19      6.05        29.79       
C           117.95      5.88        29.17       
C           126.9       -7.6        36.13       
S           125.22      -7.25       35.69       
C           127.71      -6.56       35.95       
C           127.04      -5.44       35.36       
C           125.7       -5.63       35.19       
N           127.32      -4.18       34.92       
C           126.19      -3.54       34.46       
C           125.18      -4.45       34.68       
C           128.66      -3.61       35.08       
H           128.62      -2.61       34.68       
H           129.41      -4.23       34.59       
H           128.91998   -3.51163    36.13396    
H           126.37      -1.5        33.78       
H           128.79      -6.53       36.28       
C           125.7       -2.33       33.89       
S           123.65      -3.87       34.1        
C           124.36      -2.36       33.67       
C           127.94      -18.27      38.37       
C           128.13      -17.33      39.38       
C           127.97      -17.85      37.01       
C           128.28      -16.55      36.74       
C           128.44      -15.6       37.75       
C           128.35      -16.03      39.06       
N           128.41      -15.97      35.46       
C           128.61      -14.61      35.59       
C           128.67      -14.33      37.09       
O           128.76      -13.86      34.6        
C           128.68      -16.62      34.2        
C           128.66      -12.99      37.47       
C           128.26      -11.73      36.87       
C           128.3       -10.69      37.87       
N           128.89      -11.23      39.02       
C           129.02      -12.6       38.95       
C           127.58      -11.35      35.69       
O           129.5       -13.26      39.84       
C           129.27      -10.5       40.26       
H           128.42      -15.3       39.78       
H           127.95      -18.58      36.25       
H           128.07      -17.54      40.43       
H           128.05      -8.65       38.47       
H           127.49      -12.08      34.9        
H           126.9       -9.76       34.46       
H           128.03      -16.23      33.36       
H           128.42      -17.64      34.26       
H           129.75377   -16.62      34.01263    
H           128.61      -9.65       40.38       
H           130.29298   -10.12608   40.21767    
H           129.2       -11.1       41.19       
C           127.18      -10.0       35.46       
C           127.84      -9.38       37.64       
C           127.35      -9.0        36.44       
C           124.89      -25.34      39.5        
S           124.57      -24.18      38.22       
C           125.86      -24.89      40.4        
C           126.31      -23.62      40.09       
C           125.76      -23.12      38.91       
N           127.2       -22.7       40.64       
C           127.2       -21.58      39.85       
C           126.34      -21.83      38.74       
C           128.18      -22.94      41.7        
H           128.57      -21.96      41.96       
H           129.0       -23.58      41.41       
H           127.73519   -23.41261   42.57572    
H           128.35      -19.81      40.61       
H           126.24      -25.5       41.22       
C           127.8       -20.29      39.82       
S           126.38      -20.41      37.66       
C           127.46      -19.6       38.71       
C           118.32      -34.43      40.5        
C           118.05      -33.36      39.56       
C           119.34      -34.24      41.42       
C           120.22      -33.23      41.22       
C           120.09      -32.21      40.24       
C           118.89      -32.3       39.45       
N           121.36      -32.9       42.0        
C           122.05      -31.81      41.46       
C           121.25      -31.29      40.3        
O           123.11      -31.35      41.88       
C           121.88      -33.71      43.1        
C           121.71      -30.15      39.61       
C           122.68      -28.99      39.78       
C           122.62      -28.19      38.66       
N           121.8       -28.76      37.71       
C           121.15      -29.88      38.21       
C           123.43      -28.48      40.85       
O           120.45      -30.44      37.44       
C           121.59      -28.17      36.41       
H           118.7       -31.59      38.74       
H           119.54      -35.0       42.15       
H           117.25      -33.29      38.85       
H           123.38      -26.45      37.52       
H           123.47      -29.01      41.8        
H           124.65      -27.01      41.65       
H           122.32      -33.0       43.85       
H           121.01      -34.22      43.53       
H           122.59589   -34.44654   42.73517    
H           121.64      -27.09      36.45       
H           122.16835   -28.62989   35.60868    
H           120.53      -28.43      36.12       
C           124.14      -27.32      40.75       
C           123.43      -27.04      38.45       
C           124.25      -26.64      39.54       
C           114.43      -40.98      42.28       
S           115.68      -40.07      43.13       
C           114.28      -40.46      40.98       
C           115.18      -39.33      40.73       
C           115.93      -38.99      41.84       
N           115.49      -38.45      39.72       
C           116.15      -37.39      40.25       
C           116.65      -37.85      41.54       
C           115.02      -38.58      38.36       
H           114.99      -37.63      37.85       
H           114.02      -38.93      38.26       
H           115.67069   -39.27136   37.82454    
H           116.28      -35.65      38.93       
H           113.59      -40.85      40.26       
C           116.55      -36.1       39.88       
S           117.71      -36.61      42.2        
C           117.53      -35.63      40.73       
C           109.89      -49.42      48.46       
C           110.94      -48.68      49.05       
C           109.35      -48.98      47.22       
C           110.02      -48.06      46.46       
C           111.13      -47.27      47.0        
C           111.49      -47.61      48.37       
N           109.87      -47.79      45.07       
C           110.67      -46.75      44.68       
C           111.55      -46.3       45.92       
O           110.49      -46.23      43.63       
C           109.29      -48.69      44.13       
C           112.42      -45.2       45.79       
C           112.73      -44.21      44.76       
C           113.36      -43.1       45.32       
N           113.5       -43.34      46.73       
C           112.94      -44.56      47.03       
C           112.57      -44.07      43.32       
O           113.03      -44.99      48.17       
C           114.46      -42.74      47.67       
H           112.44      -47.24      48.66       
H           108.51      -49.54      46.76       
H           111.37      -49.02      49.97       
H           114.65      -41.42      45.1        
H           112.07      -44.82      42.72       
H           112.91      -42.98      41.51       
H           108.85      -49.44      44.73       
H           108.44      -48.28      43.63       
H           110.00166   -49.14163   43.43887    
H           114.31      -42.98      48.72       
H           115.50841   -42.86498   47.39922    
H           114.24      -41.67      47.7        
C           113.15      -43.05      42.56       
C           113.97      -42.09      44.57       
C           113.83      -42.01      43.15       
C           105.52      -55.29      51.4        
S           105.69      -54.66      49.77       
C           106.56      -54.83      52.18       
C           107.3       -53.77      51.53       
C           107.01      -53.6       50.19       
N           108.16      -52.75      51.91       
C           108.47      -51.97      50.81       
C           107.75      -52.5       49.68       
C           108.58      -52.35      53.21       
H           109.26      -51.52      53.2        
H           108.98      -53.1       53.84       
H           107.706     -52.02762   53.77595    
H           110.01      -50.35      51.13       
H           106.65      -55.16      53.23       
C           109.31      -50.89      50.48       
S           108.04      -51.51      48.28       
C           109.23      -50.52      49.18       
H           13.77       35.58       44.58       
H           104.91      -56.18      51.67       
