512

C           22.31       28.59       43.79       
C           20.95       28.3        43.48       
C           22.61       29.87       44.22       
C           21.52       30.73       44.4        
C           20.17       30.46       44.14       
C           19.87       29.18       43.67       
N           21.59       32.07       44.92       
C           20.39       32.7        44.86       
C           19.42       31.72       44.2        
O           20.15       33.87       45.11       
C           22.7        32.75       45.64       
C           18.21       32.21       43.66       
C           17.43       33.47       43.8        
C           16.34       33.41       42.86       
N           16.39       32.19       42.17       
C           17.51       31.45       42.54       
C           17.41       34.65       44.63       
O           17.75       30.49       41.87       
C           15.48       31.75       41.12       
H           18.86       28.94       43.35       
H           23.65       30.17       44.39       
H           20.74       27.3        43.03       
H           14.78       34.54       41.78       
H           18.22       34.95       45.26       
H           16.57       36.61       45.0        
H           23.47       32.03       45.73       
H           23.06       33.55       44.94       
H           22.39293    33.05707    46.63976    
H           15.23       32.62       40.57       
H           14.63718    31.17601    41.50508    
H           16.1        31.18       40.45       
C           16.57       35.74       44.38       
C           15.47       34.51       42.61       
C           15.6        35.74       43.34       
C           28.69       24.4        42.15       
S           28.36       26.08       42.7        
C           27.48       23.74       42.08       
C           26.31       24.51       42.43       
C           26.67       25.83       42.73       
N           24.9        24.44       42.43       
C           24.41       25.67       42.93       
C           25.5        26.52       43.1        
C           24.09       23.52       41.61       
H           23.13       24.01       41.42       
H           23.9        22.53       42.02       
H           24.56403    23.41543    40.63406    
H           22.23       25.97       43.08       
H           27.44       22.69       41.78       
C           23.22       26.33       43.27       
S           25.02       28.06       43.68       
C           23.36       27.6        43.64       
C           39.52       21.74       40.86       
C           39.05       23.03       40.83       
C           38.58       20.68       40.99       
C           37.24       20.96       41.07       
C           36.74       22.28       40.96       
C           37.66       23.31       40.73       
N           36.16       20.08       41.27       
C           34.98       20.81       41.5        
C           35.27       22.26       41.34       
O           33.9        20.19       41.69       
C           36.21       18.68       40.85       
C           34.26       23.25       41.57       
C           32.79       23.18       41.74       
C           32.34       24.47       42.12       
N           33.48       25.37       42.19       
C           34.59       24.75       41.82       
C           31.79       22.3        41.36       
O           35.59       25.3        41.91       
C           33.4        26.75       42.54       
H           37.3        24.36       40.69       
H           38.88       19.66       41.16       
H           39.78       23.85       40.77       
H           30.87       25.87       42.36       
H           32.03       21.44       40.79       
H           29.67       21.97       41.28       
H           37.29       18.31       40.97       
H           35.63       18.0        41.56       
H           35.92144    18.53924    39.80836    
H           34.24       27.09       43.12       
H           33.12955    27.40878    41.71479    
H           32.59       26.9        43.28       
C           30.44       22.63       41.61       
C           31.05       24.84       42.19       
C           30.04       23.92       42.02       
C           47.17       21.13       39.61       
S           46.09       22.5        39.34       
C           46.47       20.01       40.01       
C           45.13       20.27       40.26       
C           44.72       21.53       39.9        
N           44.05       19.52       40.74       
C           42.98       20.37       40.69       
C           43.29       21.6        40.12       
C           44.21       18.49       41.8        
H           43.17       18.28       42.02       
H           44.71       18.91       42.68       
H           44.64994    17.61722    41.31749    
H           41.13       19.42       41.47       
H           46.93       19.05       40.16       
C           41.58       20.3        40.95       
S           41.93       22.71       39.93       
C           40.92       21.44       40.64       
C           58.16       22.96       38.38       
C           57.69       21.88       39.15       
C           57.27       23.74       37.58       
C           55.94       23.54       37.89       
C           55.38       22.44       38.71       
C           56.37       21.63       39.25       
N           54.87       24.4        37.6        
C           53.66       23.74       37.85       
C           53.92       22.43       38.53       
O           52.68       24.36       37.55       
C           54.9        25.8        37.15       
C           52.88       21.58       38.99       
C           51.42       21.68       38.98       
C           50.84       20.57       39.6        
N           51.91       19.76       40.05       
C           53.08       20.31       39.78       
C           50.45       22.46       38.34       
O           54.09       19.78       39.99       
C           51.88       18.51       40.73       
H           56.06       20.82       39.89       
H           57.66       24.63       37.07       
H           58.33       21.31       39.84       
H           49.09       19.45       40.35       
H           50.68       23.37       37.77       
H           48.47       22.95       38.05       
H           55.93       26.1        36.81       
H           54.29       26.02       36.29       
H           54.61274    26.52533    37.91124    
H           52.79       17.91       40.5        
H           51.92983    18.63103    41.81211    
H           51.09       17.88       40.39       
C           49.06       22.24       38.53       
C           49.51       20.35       39.8        
C           48.59       21.27       39.34       
C           65.86       23.41       39.22       
S           64.7        22.05       39.26       
C           65.23       24.56       38.93       
C           63.81       24.4        38.79       
C           63.37       23.06       38.87       
N           62.71       25.21       38.62       
C           61.58       24.34       38.5        
C           62.01       22.97       38.57       
C           62.56       26.62       38.4        
H           61.6        26.93       38.82       
H           62.49       26.87       37.36       
H           63.37841    27.19941    38.82731    
H           59.64       25.41       38.29       
H           65.65       25.55       38.92       
C           60.21       24.47       38.29       
S           60.66       21.88       38.45       
C           59.6        23.21       38.32       
C           76.98       21.49       38.17       
C           76.44       22.72       37.95       
C           76.07       20.45       38.6        
C           74.76       20.71       38.9        
C           74.21       22.02       38.78       
C           75.08       23.0        38.31       
N           73.78       19.72       39.14       
C           72.56       20.32       39.32       
C           72.73       21.83       39.18       
O           71.57       19.61       39.29       
C           74.04       18.32       39.1        
C           71.64       22.66       39.26       
C           70.11       22.47       39.53       
C           69.56       23.81       39.32       
N           70.63       24.75       39.26       
C           71.82       24.16       39.31       
C           69.12       21.48       39.64       
O           72.86       24.76       39.57       
C           70.55       26.15       38.88       
H           74.72       23.99       38.07       
H           76.48       19.46       38.7        
H           76.98       23.5        37.44       
H           67.91       25.17       39.11       
H           69.43       20.42       39.67       
H           67.0        21.01       39.78       
H           75.02       18.07       39.6        
H           73.33       17.72       39.63       
H           74.11608    17.95341    38.07632    
H           71.23       26.69       39.46       
H           70.85478    26.32317    37.8479     
H           69.59       26.51       38.93       
C           67.74       21.86       39.6        
C           68.22       24.14       39.2        
C           67.29       23.15       39.37       
C           84.03       20.85       34.94       
S           82.75       22.09       34.82       
C           83.62       19.81       35.7        
C           82.32       20.04       36.27       
C           81.74       21.19       35.86       
N           81.44       19.32       37.14       
C           80.34       20.16       37.28       
C           80.55       21.32       36.62       
C           81.72       18.04       37.74       
H           80.79       17.68       38.08       
H           82.37       18.19       38.54       
H           82.02294    17.26101    37.04035    
H           78.8        19.22       38.64       
H           84.28       18.99       35.89       
C           79.15       20.08       38.04       
S           79.1        22.37       36.78       
C           78.31       21.18       37.75       
C           93.86       21.41       29.57       
C           93.1        22.55       29.73       
C           93.47       20.27       30.27       
C           92.25       20.31       30.95       
C           91.43       21.49       31.09       
C           91.85       22.62       30.36       
N           91.65       19.23       31.61       
C           90.46       19.58       32.19       
C           90.25       21.09       31.91       
O           89.63       18.8        32.58       
C           92.12       17.85       31.53       
C           89.05       21.65       32.14       
C           87.88       21.33       33.04       
C           86.79       22.12       32.69       
N           87.15       23.05       31.69       
C           88.52       22.9        31.37       
C           87.63       20.44       34.03       
O           89.09       23.53       30.5        
C           86.29       23.74       30.73       
H           91.29       23.49       30.38       
H           93.98       19.36       30.06       
H           93.34       23.4        29.14       
H           84.74       22.63       32.96       
H           88.47       19.82       34.42       
H           86.43       19.54       35.44       
H           92.52       17.67       30.51       
H           91.29       17.2        31.63       
H           92.87084    17.58287    32.27362    
H           85.4        23.07       30.57       
H           85.91038    24.65799    31.17864    
H           86.79       23.92       29.77       
C           86.43       20.31       34.69       
C           85.52       21.97       33.2        
C           85.3        21.02       34.23       
C           100.36      20.06       25.64       
S           99.27       19.03       26.64       
C           99.89       21.35       25.56       
C           98.66       21.51       26.24       
C           98.23       20.39       26.88       
N           97.73       22.54       26.5        
C           96.76       22.0        27.32       
C           97.06       20.65       27.58       
C           97.9        23.94       26.04       
H           98.54       23.8        25.19       
H           96.95       24.25       25.55       
H           98.308      24.55558    26.84168    
H           95.22       23.39       27.91       
H           100.47      22.18       25.12       
C           95.66       22.43       28.03       
S           95.85       19.8        28.5        
C           95.09       21.35       28.76       
C           109.6       15.04       21.59       
C           109.35      16.4        21.32       
C           108.71      14.36       22.37       
C           107.67      14.96       22.89       
C           107.35      16.34       22.69       
C           108.22      17.0        21.85       
N           106.65      14.3        23.62       
C           105.68      15.22       23.93       
C           106.11      16.61       23.49       
O           104.65      14.78       24.56       
C           106.45      12.88       23.79       
C           105.38      17.75       23.79       
C           103.96      18.08       24.3        
C           103.83      19.5        24.32       
N           105.0       20.06       23.83       
C           105.97      19.18       23.56       
C           102.8       17.37       24.66       
O           107.11      19.53       23.31       
C           105.14      21.52       23.63       
H           108.06      18.05       21.65       
H           108.88      13.31       22.63       
H           109.94      16.97       20.67       
H           102.63      21.28       24.99       
H           102.85      16.3        24.56       
H           100.78      17.48       25.32       
H           106.36      12.68       24.85       
H           107.39      12.4        23.61       
H           105.62197   12.51121    23.18463    
H           106.18      21.94       23.55       
H           104.57866   21.86228    22.76061    
H           104.63      22.05       24.46       
C           101.63      18.07       25.02       
C           102.68      20.19       24.85       
C           101.56      19.43       25.18       
C           116.18      11.02       21.15       
S           114.56      10.54       20.64       
C           116.28      12.34       21.42       
C           115.03      12.96       21.27       
C           114.0       12.18       20.89       
N           114.55      14.2        21.67       
C           113.2       14.18       21.46       
C           112.84      12.98       20.84       
C           115.29      15.13       22.59       
H           116.38      14.99       22.64       
H           115.22      16.12       22.21       
H           114.91582   14.99328    23.60459    
H           112.25      16.0        22.13       
H           117.17      12.81       21.71       
C           112.13      15.0        21.66       
S           111.11      12.84       20.64       
C           110.93      14.44       21.34       
C           122.22      2.2         24.76       
C           122.6       3.47        25.09       
C           121.19      2.04        23.83       
C           120.55      3.15        23.33       
C           120.88      4.48        23.66       
C           121.94      4.57        24.58       
N           119.48      3.18        22.43       
C           119.03      4.46        22.22       
C           119.94      5.43        22.99       
O           118.23      4.65        21.38       
C           118.76      2.03        21.95       
C           119.73      6.8         23.03       
C           118.76      7.7         22.31       
C           118.94      9.01        22.71       
N           120.06      9.06        23.53       
C           120.61      7.78        23.74       
C           117.63      7.57        21.39       
O           121.49      7.52        24.54       
C           120.56      10.23       24.09       
H           122.26      5.52        24.76       
H           120.88      1.1         23.4        
H           123.43      3.66        25.75       
H           118.51      11.08       22.43       
H           117.47      6.68        20.93       
H           116.1       8.43        20.23       
H           119.48      1.4         21.46       
H           118.06      2.18        21.14       
H           118.34188   1.49141     22.80041    
H           120.3       11.07       23.45       
H           120.18185   10.39807    25.09839    
H           121.68      10.09       24.0        
C           116.89      8.67        20.93       
C           118.18      10.1        22.23       
C           117.11      9.91        21.39       
C           124.88      -4.73       27.73       
S           123.45      -4.44       26.71       
C           125.54      -3.53       27.93       
C           124.94      -2.39       27.38       
C           123.75      -2.69       26.64       
N           125.16      -1.04       27.45       
C           124.22      -0.36       26.69       
C           123.28      -1.35       26.23       
C           126.23      -0.44       28.23       
H           126.14      0.64        28.24       
H           127.21      -0.62       27.84       
H           126.19336   -0.76243    29.27057    
H           124.6       1.78        26.39       
H           126.47      -3.5        28.49       
C           123.94      0.98        26.17       
S           122.09      -0.57       25.26       
C           122.86      1.02        25.33       
C           126.91      -14.77      32.0        
C           127.27      -13.67      32.76       
C           126.56      -14.78      30.63       
C           126.57      -13.52      30.1        
C           126.8       -12.27      30.82       
C           127.25      -12.41      32.16       
N           126.05      -13.21      28.84       
C           125.94      -11.83      28.64       
C           126.53      -11.18      29.87       
O           125.33      -11.42      27.65       
C           125.9       -14.19      27.8        
C           126.48      -9.79       29.98       
C           125.85      -8.65       29.3        
C           126.41      -7.42       29.75       
N           127.33      -7.78       30.73       
C           127.36      -9.1        31.01       
C           124.82      -8.5        28.36       
O           128.26      -9.43       31.76       
C           127.91      -6.84       31.65       
H           127.53      -11.59      32.76       
H           126.4       -15.64      30.07       
H           127.69      -13.72      33.75       
H           126.65      -5.38       29.75       
H           124.18      -9.3        28.01       
H           123.78      -7.15       27.09       
H           125.02      -13.93      27.27       
H           125.71      -15.16      28.24       
H           126.73851   -14.19711   27.10361    
H           127.35      -5.9        31.75       
H           128.967     -6.7496     31.39966    
H           127.7       -7.38       32.56       
C           124.59      -7.23       27.83       
C           126.08      -6.19       29.33       
C           125.18      -6.09       28.31       
C           124.84      -21.65      35.19       
S           124.19      -20.65      33.92       
C           126.08      -21.1       35.58       
C           126.38      -19.83      35.0        
C           125.44      -19.46      34.04       
N           127.4       -18.85      35.0        
C           127.02      -17.83      34.18       
C           125.84      -18.22      33.52       
C           128.68      -19.06      35.71       
H           129.28      -18.19      35.48       
H           129.21      -19.89      35.36       
H           128.46815   -19.14201   36.77607    
H           128.42      -16.22      34.23       
H           126.75      -21.66      36.23       
C           127.59      -16.59      33.7        
S           125.34      -16.93      32.42       
C           126.81      -15.98      32.71       
C           120.23      -31.81      37.25       
C           120.11      -31.13      36.03       
C           121.07      -31.24      38.25       
C           121.76      -30.07      37.91       
C           121.68      -29.4       36.61       
C           120.76      -29.93      35.73       
N           122.71      -29.42      38.79       
C           123.23      -28.33      38.1        
C           122.63      -28.2       36.67       
O           123.95      -27.55      38.71       
C           123.11      -29.78      40.14       
C           122.83      -27.08      35.83       
C           123.46      -25.72      35.88       
C           123.17      -24.99      34.67       
N           122.42      -25.79      33.81       
C           122.27      -27.04      34.43       
C           124.21      -25.07      36.89       
O           121.74      -27.96      33.84       
C           122.25      -25.62      32.41       
H           120.51      -29.49      34.8        
H           121.32      -31.64      39.21       
H           119.42      -31.47      35.28       
H           123.45      -23.11      33.45       
H           124.51      -25.58      37.79       
H           125.17      -23.26      37.54       
H           123.11      -28.99      40.82       
H           122.33      -30.36      40.61       
H           124.08642   -30.26124   40.0842     
H           122.5       -26.53      31.94       
H           121.22537   -25.4318    32.08937    
H           122.98      -24.86      32.09       
C           124.58      -23.69      36.74       
C           123.61      -23.65      34.47       
C           124.32      -23.0       35.5        
C           116.04      -37.99      39.68       
S           117.26      -37.0       40.49       
C           115.63      -37.48      38.48       
C           116.57      -36.42      38.11       
C           117.46      -35.96      39.12       
N           116.79      -35.55      37.01       
C           117.7       -34.6       37.3        
C           118.08      -34.82      38.62       
C           116.22      -35.64      35.67       
H           116.83      -35.02      34.91       
H           115.26      -35.22      35.65       
H           116.29061   -36.66386   35.30282    
H           118.35      -33.2       35.68       
H           114.87      -37.93      37.82       
C           118.45      -33.55      36.67       
S           119.35      -33.75      39.1        
C           119.39      -32.99      37.5        
C           110.67      -46.52      44.4        
C           111.72      -45.82      45.06       
C           110.38      -46.08      43.05       
C           110.98      -44.87      42.59       
C           111.94      -44.1       43.32       
C           112.3       -44.66      44.57       
N           110.76      -44.34      41.35       
C           111.46      -43.16      41.2        
C           112.38      -43.03      42.41       
O           111.21      -42.29      40.32       
C           110.57      -45.18      40.16       
C           113.19      -41.97      42.62       
C           113.87      -41.1       41.7        
C           114.47      -39.97      42.36       
N           114.32      -40.21      43.72       
C           113.62      -41.39      43.95       
C           113.96      -41.04      40.25       
O           113.25      -41.66      45.1        
C           115.0       -39.57      44.8        
H           113.08      -44.18      45.16       
H           109.67      -46.59      42.45       
H           111.83      -46.02      46.12       
H           115.65      -38.14      42.33       
H           113.47      -41.81      39.63       
H           114.9       -40.07      38.55       
H           110.15      -46.14      40.34       
H           109.69      -44.73      39.68       
H           111.44338   -45.15227   39.50843    
H           114.58      -39.65      45.79       
H           116.01083   -39.94815   44.95272    
H           114.86      -38.55      44.62       
C           114.67      -40.03      39.6        
C           115.16      -38.94      41.74       
C           115.23      -38.98      40.32       
C           105.01      -51.21      46.89       
S           105.48      -50.77      45.22       
C           105.93      -50.86      47.81       
C           106.91      -50.01      47.25       
C           106.83      -49.89      45.88       
N           107.94      -49.19      47.75       
C           108.58      -48.67      46.62       
C           107.86      -49.07      45.45       
C           108.08      -48.98      49.13       
H           109.06      -48.57      49.35       
H           108.15      -49.95      49.68       
H           107.25689   -48.37686   49.51317    
H           110.45      -47.44      47.09       
H           105.86      -50.94      48.88       
C           109.75      -47.85      46.41       
S           108.7       -48.41      44.04       
C           109.9       -47.56      45.03       
H           15.47       36.66       42.75       
H           103.97      -51.38      47.11       
