512

C           26.52       10.61       34.36       
C           25.41       10.01       34.88       
C           26.34       11.51       33.28       
C           25.02       11.76       32.88       
C           23.85       11.2        33.37       
C           24.11       10.29       34.44       
N           24.75       12.61       31.88       
C           23.41       12.76       31.65       
C           22.72       11.83       32.59       
O           22.85       13.33       30.7        
C           25.71       13.52       31.21       
C           21.38       11.61       32.55       
C           20.2        12.52       32.05       
C           19.06       11.78       32.35       
N           19.34       10.58       33.02       
C           20.71       10.39       33.03       
C           19.95       13.77       31.52       
O           21.23       9.44        33.61       
C           18.39       9.59        33.47       
H           23.28       9.7         34.91       
H           27.25       11.96       32.85       
H           25.55       9.49        35.77       
H           16.87       11.68       32.18       
H           20.79       14.44       31.49       
H           18.58       15.1        30.56       
H           26.77       13.32       31.32       
H           25.66       13.29       30.08       
H           25.44629    14.55404    31.43208    
H           17.52       9.54        32.78       
H           18.00933    9.70279     34.48512    
H           18.91       8.66        33.37       
C           18.66       14.16       31.08       
C           17.77       12.23       31.99       
C           17.57       13.4        31.28       
C           33.87       10.58       36.93       
S           32.76       11.94       36.67       
C           33.22       9.38        36.83       
C           31.87       9.53        36.37       
C           31.44       10.81       36.14       
N           30.85       8.65        36.12       
C           29.73       9.41        35.8        
C           30.08       10.78       35.76       
C           31.04       7.25        35.96       
H           30.08       6.76        35.76       
H           31.38       6.78        36.83       
H           31.64451    7.06792     35.07145    
H           28.02       8.25        35.11       
H           33.68       8.43        37.04       
C           28.45       9.22        35.28       
S           28.72       11.78       35.28       
C           27.78       10.42       34.94       
C           44.22       11.7        40.84       
C           43.95       10.87       39.72       
C           43.16       12.26       41.57       
C           41.83       12.07       41.09       
C           41.54       11.27       39.94       
C           42.66       10.72       39.32       
N           40.6        12.61       41.62       
C           39.49       12.24       40.87       
C           40.06       11.32       39.73       
O           38.35       12.49       41.24       
C           40.5        13.27       42.92       
C           39.23       10.68       38.81       
C           37.8        10.96       38.55       
C           37.37       9.81        37.69       
N           38.43       8.87        37.46       
C           39.56       9.37        38.03       
C           36.78       11.84       38.86       
O           40.63       8.96        37.81       
C           38.36       7.53        36.79       
H           42.56       10.27       38.38       
H           43.38       12.82       42.51       
H           44.71       10.35       39.12       
H           35.84       8.98        36.46       
H           37.01       12.58       39.54       
H           34.8        12.49       38.67       
H           41.49       13.68       43.06       
H           39.78       14.15       42.93       
H           40.28684    12.58079    43.7371     
H           37.4        7.02        36.98       
H           38.59703    7.5731      35.72696    
H           39.13       6.93        37.35       
C           35.52       11.77       38.37       
C           36.16       9.78        37.04       
C           35.21       10.79       37.4        
C           51.45       13.52       42.96       
S           49.95       14.17       43.56       
C           51.3        12.4        42.17       
C           49.91       12.2        41.93       
C           49.04       13.04       42.62       
N           49.17       11.35       41.03       
C           47.9        11.61       41.33       
C           47.77       12.61       42.31       
C           49.64       10.17       40.4        
H           48.83       9.89        39.78       
H           49.93       9.47        41.19       
H           50.56453    10.30832    39.83946    
H           46.74       10.4        39.94       
H           52.12       11.84       41.73       
C           46.72       11.19       40.78       
S           46.12       12.98       42.56       
C           45.64       11.83       41.32       
C           61.01       19.09       45.06       
C           61.02       17.8        44.48       
C           59.84       19.77       45.03       
C           58.65       19.15       44.56       
C           58.56       17.79       44.22       
C           59.81       17.19       44.09       
N           57.39       19.74       44.48       
C           56.47       18.84       44.09       
C           57.18       17.43       43.9        
O           55.26       19.11       44.02       
C           57.09       21.14       44.7        
C           56.59       16.23       43.52       
C           55.18       15.69       43.57       
C           55.08       14.42       43.01       
N           56.41       14.04       42.63       
C           57.34       15.07       42.9        
C           53.97       16.2        44.01       
O           58.49       14.98       42.51       
C           56.93       12.79       42.15       
H           59.94       16.18       43.7        
H           59.78       20.81       45.31       
H           62.03       17.28       44.3        
H           53.97       12.68       42.44       
H           53.91       17.13       44.42       
H           51.78       15.99       43.85       
H           57.94       21.79       44.96       
H           56.72       21.64       43.89       
H           56.50873    21.24258    45.61635    
H           56.19       12.02       42.37       
H           57.05178    12.73269    41.06834    
H           57.93       12.53       42.55       
C           52.74       15.53       43.73       
C           53.95       13.68       42.89       
C           52.72       14.19       43.23       
C           67.02       23.27       47.65       
S           65.4        23.14       48.32       
C           67.18       22.45       46.53       
C           66.09       21.64       46.28       
C           64.97       22.04       47.06       
N           65.74       20.68       45.34       
C           64.32       20.58       45.38       
C           63.89       21.32       46.43       
C           66.62       20.13       44.25       
H           66.09       19.39       43.69       
H           67.59       19.77       44.55       
H           66.91879    20.9535     43.6014     
H           63.48       19.09       43.94       
H           68.04       22.51       45.9        
C           63.34       19.74       44.78       
S           62.17       21.05       46.64       
C           62.16       19.8        45.46       
C           75.65       27.54       53.8        
C           74.31       27.82       54.1        
C           75.83       27.01       52.56       
C           74.79       26.52       51.76       
C           73.44       26.7        52.14       
C           73.26       27.34       53.39       
N           74.88       25.88       50.54       
C           73.6        25.56       50.12       
C           72.56       26.1        51.11       
O           73.49       25.0        49.01       
C           76.08       25.64       49.81       
C           71.16       25.87       50.92       
C           70.3        25.32       49.8        
C           68.91       25.26       50.33       
N           68.84       25.82       51.58       
C           70.12       26.32       51.93       
C           70.44       24.75       48.51       
O           70.21       27.14       52.77       
C           67.67       26.05       52.36       
H           72.29       27.55       53.84       
H           76.82       26.68       52.25       
H           74.03       28.35       55.03       
H           66.91       24.63       49.96       
H           71.43       24.7        48.04       
H           69.55       23.52       47.01       
H           76.01       26.16       48.85       
H           76.87       26.07       50.31       
H           76.27707    24.57724    49.66924    
H           66.89       26.22       51.65       
H           67.54089    25.33272    53.17052    
H           67.84       27.05       52.76       
C           69.33       24.16       47.84       
C           67.84       24.71       49.58       
C           68.03       24.1        48.32       
C           82.28       28.12       57.68       
S           81.74       27.09       56.32       
C           81.36       29.11       57.94       
C           80.15       28.94       57.18       
C           80.25       27.9        56.27       
N           78.89       29.62       57.09       
C           78.23       28.84       56.19       
C           79.05       27.87       55.62       
C           78.52       30.93       57.62       
H           77.5        31.29       57.27       
H           79.2        31.62       57.18       
H           78.52       31.00299    58.70755    
H           76.21       29.62       55.74       
H           81.53       29.87       58.63       
C           76.95       28.84       55.57       
S           78.26       26.94       54.33       
C           76.77       27.87       54.61       
C           92.4        28.19       62.64       
C           92.22       27.47       61.46       
C           91.28       28.86       63.18       
C           90.11       28.9        62.46       
C           89.86       28.08       61.28       
C           91.0        27.34       60.81       
N           88.94       29.58       62.8        
C           87.95       29.32       61.84       
C           88.47       28.22       60.92       
O           87.0        30.16       61.78       
C           88.76       30.47       63.97       
C           87.71       27.76       59.89       
C           86.22       27.98       59.53       
C           85.96       27.29       58.29       
N           87.15       26.67       57.82       
C           88.2        26.84       58.77       
C           85.15       28.58       60.09       
O           89.28       26.31       58.64       
C           87.42       26.34       56.38       
H           91.0        26.73       59.99       
H           91.42       29.59       63.97       
H           93.07       26.92       61.06       
H           84.58       26.87       56.69       
H           85.21       28.92       61.09       
H           83.11       28.93       60.03       
H           87.86       31.03       63.88       
H           89.6        31.17       64.1        
H           88.4471     29.85842    64.81626    
H           86.53       26.05       55.84       
H           87.84307    27.16464    55.80634    
H           88.09       25.47       56.35       
C           83.9        28.5        59.45       
C           84.71       27.34       57.62       
C           83.64       27.98       58.23       
C           99.32       27.17       65.79       
S           98.87       27.38       64.09       
C           98.3        27.59       66.59       
C           97.04       27.72       65.89       
C           97.19       27.62       64.51       
N           95.74       27.99       66.2        
C           95.07       28.03       65.0        
C           95.91       27.84       63.96       
C           95.31       28.0        67.58       
H           94.41       27.35       67.66       
H           96.14       27.6        68.13       
H           95.05191    29.01142    67.89389    
H           92.86       28.25       65.3        
H           98.4        27.63       67.66       
C           93.69       28.15       64.6        
S           95.14       28.01       62.41       
C           93.66       28.28       63.3        
C           108.67      21.65       68.19       
C           108.45      22.13       66.89       
C           107.83      22.12       69.17       
C           106.75      23.02       68.95       
C           106.49      23.44       67.66       
C           107.32      22.95       66.64       
N           105.8       23.57       69.88       
C           104.86      24.3        69.25       
C           105.26      24.25       67.75       
O           104.01      24.83       69.97       
C           106.03      23.64       71.33       
C           104.56      24.98       66.75       
C           103.19      25.62       66.75       
C           102.95      26.31       65.55       
N           104.1       26.12       64.71       
C           105.11      25.37       65.35       
C           102.13      25.62       67.65       
O           106.16      25.09       64.77       
C           104.07      26.58       63.29       
H           107.24      23.13       65.6        
H           107.92      21.69       70.16       
H           109.07      21.73       66.05       
H           101.6       27.46       64.21       
H           102.18      24.92       68.5        
H           100.07      26.04       68.01       
H           105.98      24.66       71.64       
H           107.02      23.45       71.62       
H           105.26636   23.17333    71.95223    
H           103.1       26.43       62.78       
H           104.36876   27.61856    63.14773    
H           104.78      25.94       62.77       
C           100.91      26.15       67.35       
C           101.74      27.04       65.24       
C           100.72      26.87       66.13       
C           113.8       16.25       70.48       
S           112.45      17.02       71.32       
C           113.84      16.67       69.19       
C           112.97      17.77       68.93       
C           112.09      18.06       70.01       
N           112.67      18.61       67.83       
C           111.58      19.35       68.22       
C           111.27      19.05       69.56       
C           113.42      18.58       66.59       
H           113.7       19.59       66.28       
H           114.38      18.02       66.82       
H           112.86927   18.02927    65.82745    
H           110.75      20.66       66.64       
H           114.67      16.36       68.54       
C           110.73      20.36       67.67       
S           109.99      20.07       70.06       
C           109.76      20.79       68.51       
C           120.64      8.51        74.54       
C           119.67      9.11        75.36       
C           120.82      8.99        73.28       
C           120.12      10.14       72.86       
C           119.14      10.77       73.66       
C           119.01      10.26       74.89       
N           120.23      10.68       71.62       
C           119.4       11.84       71.58       
C           118.51      11.87       72.88       
O           119.18      12.43       70.52       
C           120.48      10.06       70.34       
C           117.5       12.82       73.1        
C           116.74      13.72       72.21       
C           115.77      14.37       73.03       
N           116.04      14.13       74.36       
C           117.1       13.23       74.47       
C           116.61      13.9        70.83       
O           117.73      13.15       75.52       
C           115.07      14.07       75.43       
H           118.36      10.67       75.62       
H           121.61      8.52        72.67       
H           119.29      8.57        76.3        
H           114.15      15.82       73.17       
H           117.27      13.44       70.12       
H           115.52      14.64       69.25       
H           121.45      9.52        70.28       
H           120.59      10.88       69.65       
H           119.6572    9.3906      70.08898    
H           115.1       13.07       75.99       
H           115.17903   14.84051    76.19324    
H           114.04      14.1        75.03       
C           115.56      14.69       70.34       
C           114.81      15.22       72.55       
C           114.7       15.35       71.19       
C           123.02      2.0         77.95       
S           121.4       2.52        77.5        
C           123.99      2.81        77.53       
C           123.48      3.97        76.85       
C           122.1       3.92        76.76       
N           123.94      5.05        76.11       
C           122.82      5.76        75.7        
C           121.65      5.09        76.07       
C           125.27      5.56        76.02       
H           125.33      6.41        75.28       
H           125.93      4.79        75.62       
H           125.65321   5.8596      76.99544    
H           123.27      7.68        74.6        
H           125.03      2.68        77.62       
C           122.59      6.97        74.95       
S           120.22      5.98        75.55       
C           121.25      7.22        74.84       
C           118.81      -6.41       83.18       
C           119.44      -5.39       83.92       
C           119.14      -6.55       81.8        
C           120.06      -5.76       81.24       
C           120.71      -4.74       81.95       
C           120.33      -4.56       83.33       
N           120.46      -5.76       79.88       
C           121.31      -4.77       79.67       
C           121.5       -3.99       80.97       
O           121.79      -4.52       78.51       
C           119.74      -6.43       78.85       
C           122.22      -2.79       80.94       
C           122.46      -1.75       79.88       
C           123.18      -0.69       80.46       
N           123.36      -0.9        81.85       
C           122.93      -2.2        82.14       
C           122.02      -1.58       78.55       
O           123.09      -2.81       83.16       
C           123.65      0.07        82.89       
H           120.78      -3.85       84.05       
H           118.61      -7.28       81.16       
H           119.16      -5.18       84.94       
H           123.88      1.28        80.39       
H           121.37      -2.31       78.1        
H           121.87      -0.18       76.93       
H           119.21      -5.71       78.27       
H           119.0       -7.11       79.09       
H           120.36701   -6.96054    78.13342    
H           123.25      1.02        82.68       
H           124.72239   0.0986      83.08303    
H           123.12      -0.36       83.72       
C           122.3       -0.37       77.93       
C           123.5       0.47        79.81       
C           123.06      0.65        78.47       
C           114.6       -12.86      84.62       
S           114.62      -11.68      83.26       
C           115.6       -12.52      85.53       
C           116.22      -11.26      85.27       
C           115.75      -10.72      84.12       
N           117.18      -10.41      85.87       
C           117.3       -9.35       84.97       
C           116.38      -9.47       83.93       
C           118.16      -10.75      86.92       
H           118.75      -9.92       87.16       
H           118.84      -11.48      86.51       
H           117.64567   -11.17978   87.77956    
H           118.73      -7.81       85.67       
H           115.75      -13.15      86.38       
C           118.08      -8.15       84.91       
S           116.62      -8.14       82.82       
C           117.92      -7.43       83.7        
C           105.43      -18.83      84.74       
C           106.06      -18.42      83.57       
C           106.2       -18.97      85.9        
C           107.38      -18.45      85.89       
C           108.06      -18.01      84.69       
C           107.35      -18.05      83.46       
N           108.18      -18.35      87.0        
C           109.39      -17.68      86.59       
C           109.37      -17.5       85.14       
O           110.37      -17.46      87.3        
C           107.73      -18.73      88.35       
C           110.45      -16.92      84.43       
C           111.51      -15.93      84.73       
C           112.22      -15.63      83.56       
N           111.82      -16.52      82.54       
C           110.69      -17.26      82.95       
C           111.9       -15.2       85.85       
O           110.08      -18.05      82.22       
C           112.09      -16.34      81.16       
H           107.72      -17.65      82.51       
H           105.76      -19.35      86.83       
H           105.54      -18.52      82.58       
H           113.85      -14.63      82.62       
H           111.39      -15.37      86.76       
H           113.1       -13.66      86.7        
H           106.81      -18.14      88.64       
H           107.54      -19.75      88.4        
H           108.51915   -18.55937   89.08228    
H           112.08      -17.26      80.59       
H           111.48132   -15.55229   80.71602    
H           113.12      -16.01      81.14       
C           112.9       -14.2       85.75       
C           113.28      -14.75      83.49       
C           113.64      -13.98      84.61       
C           98.0        -21.09      83.88       
S           98.92       -19.8       83.03       
C           98.73       -21.72      84.86       
C           100.11      -21.23      84.89       
C           100.3       -20.13      84.08       
N           101.28      -21.49      85.56       
C           102.21      -20.57      85.19       
C           101.62      -19.7       84.27       
C           101.51      -22.44      86.61       
H           102.44      -22.13      86.96       
H           101.5       -23.47      86.26       
H           100.86823   -22.26173   87.47282    
H           104.33      -21.05      86.03       
H           98.29       -22.58      85.47       
C           103.63      -20.41      85.5        
S           102.81      -18.55      83.77       
C           104.04      -19.28      84.81       
C           87.94       -25.15      80.99       
C           88.78       -24.69      79.99       
C           88.31       -25.01      82.29       
C           89.52       -24.37      82.58       
C           90.36       -23.75      81.6        
C           89.97       -23.96      80.23       
N           90.01       -24.05      83.86       
C           91.23       -23.4       83.86       
C           91.56       -23.2       82.36       
O           91.7        -22.83      84.91       
C           89.56       -24.77      85.07       
C           92.66       -22.44      81.94       
C           93.97       -22.25      82.66       
C           94.81       -21.43      81.82       
N           94.18       -21.28      80.61       
C           92.9        -21.83      80.59       
C           94.51       -22.61      83.96       
O           92.19       -21.76      79.58       
C           94.62       -20.4       79.52       
H           90.56       -23.63      79.4        
H           87.67       -25.32      83.09       
H           88.54       -24.76      78.94       
H           96.71       -20.49      81.39       
H           93.99       -23.23      84.7        
H           96.15       -22.34      85.26       
H           89.25       -24.05      85.87       
H           88.67       -25.4       84.93       
H           90.2739     -25.41105   85.58721    
H           94.27       -20.71      78.54       
H           94.32308    -19.36079   79.66139    
H           95.66       -20.57      79.4        
C           95.78       -22.14      84.28       
C           96.11       -20.98      82.14       
C           96.65       -21.45      83.41       
C           82.08       -29.78      78.46       
S           82.93       -28.39      77.7        
C           82.67       -30.02      79.67       
C           83.64       -29.09      80.08       
C           83.91       -28.17      79.06       
N           84.46       -28.83      81.14       
C           85.22       -27.71      80.84       
C           84.88       -27.25      79.56       
C           84.37       -29.36      82.48       
H           85.04       -28.82      83.22       
H           84.61       -30.35      82.47       
H           83.38069    -29.23901   82.92128    
H           86.89       -27.34      82.37       
H           82.24       -30.82      80.26       
C           86.34       -27.05      81.44       
S           85.9        -25.9       79.14       
C           86.81       -26.02      80.66       
H           16.55       13.87       31.25       
H           81.01       -29.9       78.28       
