512

C           21.46       20.67       34.79       
C           20.6        19.6        35.05       
C           21.15       21.92       35.39       
C           20.04       22.01       36.2        
C           19.12       20.97       36.36       
C           19.39       19.77       35.73       
N           19.69       23.13       36.88       
C           18.43       22.9        37.42       
C           18.18       21.39       37.36       
O           17.72       23.83       37.72       
C           20.61       24.29       37.27       
C           17.18       20.83       38.11       
C           16.4        21.24       39.32       
C           15.5        20.23       39.59       
N           15.55       19.2        38.69       
C           16.52       19.46       37.81       
C           16.5        22.3        40.26       
O           16.76       18.61       36.91       
C           14.37       18.52       38.23       
H           18.78       18.86       35.88       
H           21.83       22.75       35.3        
H           20.73       18.68       34.6        
H           13.85       19.51       40.85       
H           17.23       23.03       39.98       
H           15.63       23.12       42.06       
H           21.55       24.23       36.74       
H           20.11       25.23       37.0        
H           20.80345    24.22782    38.34089    
H           13.49       18.92       38.6        
H           14.32838    17.47244    38.52831    
H           14.26       18.61       37.12       
C           15.62       22.32       41.36       
C           14.6        20.26       40.7        
C           14.65       21.3        41.62       
C           28.14       20.21       31.2        
S           27.31       21.66       31.79       
C           27.35       19.08       31.07       
C           26.13       19.31       31.61       
C           25.99       20.64       32.16       
N           24.92       18.64       31.93       
C           24.11       19.46       32.59       
C           24.75       20.68       32.77       
C           24.68       17.17       31.7        
H           23.53       17.01       31.79       
H           25.03       16.65       32.58       
H           25.18571    16.76401    30.82391    
H           22.33       18.41       33.45       
H           27.72       18.15       30.74       
C           22.88       19.35       33.29       
S           23.72       21.72       33.76       
C           22.51       20.53       33.92       
C           39.18       20.2        29.44       
C           38.38       21.34       29.45       
C           38.48       18.95       29.62       
C           37.13       18.97       29.83       
C           36.33       20.16       29.82       
C           36.99       21.29       29.51       
N           36.27       17.87       30.12       
C           35.03       18.33       30.34       
C           34.98       19.81       30.18       
O           34.17       17.45       30.55       
C           36.73       16.5        30.35       
C           33.83       20.57       30.41       
C           32.38       20.18       30.48       
C           31.74       21.34       30.93       
N           32.61       22.37       31.13       
C           33.91       21.97       30.86       
C           31.59       19.09       30.19       
O           34.84       22.73       30.97       
C           32.23       23.61       31.66       
H           36.44       22.22       29.45       
H           39.05       18.0        29.58       
H           38.84       22.35       29.43       
H           29.95       22.17       31.79       
H           32.09       18.28       29.68       
H           29.69       18.31       29.94       
H           37.82       16.47       30.47       
H           36.38       16.1        31.34       
H           36.48278    15.80197    29.55017    
H           33.08       24.1        32.1        
H           31.73899    24.29465    30.96843    
H           31.43       23.47       32.46       
C           30.2        19.11       30.42       
C           30.36       21.38       31.19       
C           29.59       20.26       30.92       
C           46.84       21.24       29.23       
S           45.57       22.4        29.1        
C           46.42       19.95       29.28       
C           45.02       19.86       29.07       
C           44.39       21.1        29.0        
N           44.04       18.81       29.06       
C           42.82       19.44       29.0        
C           43.02       20.84       28.96       
C           44.29       17.38       29.0        
H           43.33       16.9        28.81       
H           44.57       16.93       30.01       
H           44.97372    17.09633    28.1999     
H           41.23       18.03       29.2        
H           47.08       19.1        29.35       
C           41.46       19.1        29.13       
S           41.51       21.68       29.01       
C           40.61       20.21       29.17       
C           57.46       25.24       29.72       
C           57.11       24.2        30.59       
C           56.49       25.65       28.74       
C           55.23       25.14       28.68       
C           54.78       24.21       29.66       
C           55.77       23.77       30.58       
N           54.21       25.55       27.85       
C           53.11       24.77       28.03       
C           53.34       23.88       29.3        
O           52.19       24.75       27.23       
C           54.06       26.87       27.29       
C           52.38       22.92       29.68       
C           50.95       22.61       29.3        
C           50.53       21.5        29.97       
N           51.55       20.98       30.73       
C           52.67       21.83       30.74       
C           49.92       23.27       28.6        
O           53.61       21.59       31.51       
C           51.54       19.64       31.33       
H           55.47       23.09       31.37       
H           56.82       26.36       28.02       
H           57.8        23.85       31.34       
H           48.84       20.15       30.41       
H           50.25       24.18       28.1        
H           47.93       23.32       27.93       
H           54.84       27.51       27.71       
H           54.17       26.69       26.27       
H           53.11003    27.36232    27.49802    
H           52.5        19.09       31.18       
H           51.29573    19.69583    32.39081    
H           50.89       18.98       30.7        
C           48.66       22.78       28.46       
C           49.2        20.99       29.88       
C           48.26       21.69       29.17       
C           64.56       28.27       31.35       
S           63.54       27.22       32.29       
C           64.01       28.67       30.13       
C           62.63       28.18       30.03       
C           62.28       27.29       31.07       
N           61.59       28.18       29.07       
C           60.66       27.27       29.51       
C           61.07       26.66       30.71       
C           61.43       29.2        28.03       
H           60.71       28.85       27.28       
H           62.36       29.3        27.43       
H           61.03468    30.11282    28.47563    
H           58.97       27.06       28.1        
H           64.56       29.17       29.35       
C           59.43       26.74       29.02       
S           59.9        25.46       31.18       
C           58.81       25.83       29.87       
C           75.47       26.87       33.02       
C           75.07       28.08       32.47       
C           74.48       26.12       33.59       
C           73.18       26.48       33.39       
C           72.72       27.69       32.82       
C           73.71       28.56       32.4        
N           72.01       25.68       33.79       
C           70.86       26.28       33.34       
C           71.22       27.67       32.68       
O           69.9        25.53       33.19       
C           71.97       25.09       35.1        
C           70.25       28.54       32.19       
C           68.78       28.43       32.33       
C           68.15       29.38       31.41       
N           69.13       30.26       30.88       
C           70.38       29.79       31.33       
C           67.85       27.71       33.07       
O           71.42       30.44       30.96       
C           68.96       31.31       29.88       
H           73.47       29.58       32.17       
H           74.66       25.14       34.05       
H           75.88       28.74       32.06       
H           66.33       29.99       30.36       
H           68.15       26.97       33.78       
H           65.98       26.84       33.18       
H           71.75       24.02       35.0        
H           73.02       25.05       35.48       
H           71.33661    25.60275    35.82388    
H           69.64       32.13       29.91       
H           68.80263    30.90943    28.87856    
H           68.0        31.79       30.19       
C           66.5        27.68       32.77       
C           66.73       29.36       31.11       
C           65.89       28.43       31.76       
C           82.96       25.05       31.9        
S           82.03       26.32       31.16       
C           82.24       24.43       32.85       
C           80.9        24.89       32.97       
C           80.6        25.92       32.15       
N           79.82       24.5        33.78       
C           78.77       25.34       33.39       
C           79.26       26.29       32.47       
C           79.74       23.25       34.46       
H           78.68       23.12       34.69       
H           80.38       23.35       35.33       
H           79.94279    22.43884    33.76072    
H           76.9        24.73       34.44       
H           82.76       23.74       33.47       
C           77.38       25.39       33.74       
S           78.01       27.34       32.04       
C           76.82       26.41       33.03       
C           93.39       22.9        27.92       
C           92.79       24.17       27.79       
C           92.71       21.87       28.63       
C           91.35       22.12       29.05       
C           90.7        23.44       28.86       
C           91.5        24.45       28.16       
N           90.43       21.29       29.74       
C           89.12       21.9        29.9        
C           89.29       23.36       29.43       
O           88.15       21.25       30.21       
C           90.76       20.05       30.37       
C           88.2        24.26       29.54       
C           86.95       24.2        30.28       
C           86.14       25.29       29.83       
N           86.8        26.0        28.79       
C           88.06       25.51       28.65       
C           86.42       23.5        31.37       
O           88.77       26.01       27.75       
C           86.22       26.82       27.74       
H           91.16       25.5        28.05       
H           93.25       21.0        28.93       
H           93.35       24.98       27.34       
H           84.46       26.51       30.01       
H           87.05       22.78       31.83       
H           84.65       23.0        32.62       
H           91.62       19.65       29.79       
H           89.94       19.37       30.45       
H           91.12309    20.2351     31.38094    
H           85.13       26.94       27.76       
H           86.58165    27.84823    27.73291    
H           86.55       26.41       26.78       
C           85.07       23.68       31.85       
C           84.93       25.58       30.37       
C           84.36       24.78       31.41       
C           100.81      20.72       26.62       
S           99.37       19.85       27.11       
C           100.5       22.03       26.18       
C           99.12       22.31       26.4        
C           98.4        21.21       26.77       
N           98.34       23.45       26.44       
C           97.03       23.0        26.77       
C           96.98       21.58       26.95       
C           98.78       24.84       26.15       
H           99.49       24.73       25.4        
H           97.97       25.46       25.71       
H           99.2981     25.27175    27.00631    
H           95.48       24.69       26.92       
H           101.16      22.78       25.9        
C           95.69       23.61       27.05       
S           95.44       21.05       27.36       
C           94.78       22.67       27.43       
C           110.34      14.72       26.63       
C           110.36      16.06       26.31       
C           109.1       14.09       26.78       
C           107.9       14.84       26.72       
C           107.93      16.28       26.5        
C           109.19      16.77       26.2        
N           106.57      14.41       26.85       
C           105.72      15.49       26.94       
C           106.52      16.77       26.62       
O           104.53      15.35       27.13       
C           106.13      13.01       26.96       
C           105.92      17.97       26.36       
C           104.56      18.51       26.64       
C           104.42      19.75       26.02       
N           105.68      20.05       25.36       
C           106.65      19.15       25.65       
C           103.45      18.22       27.47       
O           107.74      19.15       25.03       
C           105.97      21.16       24.5        
H           109.4       17.79       25.9        
H           109.04      13.09       27.0        
H           111.28      16.56       26.05       
H           103.19      21.4        25.54       
H           103.44      17.27       27.99       
H           101.38      18.37       27.8        
H           106.63      12.36       26.25       
H           105.07      12.84       26.66       
H           106.18918   12.63271    27.98091    
H           107.07      21.24       24.37       
H           105.45756   21.05751    23.54344    
H           105.78      22.0        25.09       
C           102.22      18.87       27.28       
C           103.22      20.5        26.04       
C           102.08      20.0        26.59       
C           115.9       9.9         29.04       
S           114.23      9.6         28.67       
C           116.19      11.2        28.75       
C           115.13      11.96       28.2        
C           113.95      11.21       28.14       
N           114.93      13.27       27.73       
C           113.68      13.3        27.26       
C           113.05      12.1        27.56       
C           115.81      14.38       27.52       
H           116.83      14.01       27.41       
H           115.51      14.93       26.64       
H           115.86802   15.06172    28.36852    
H           113.15      15.31       26.52       
H           117.19      11.55       28.81       
C           112.79      14.31       26.72       
S           111.34      12.26       27.31       
C           111.51      13.91       26.7        
C           123.18      1.37        31.18       
C           123.48      2.66        31.47       
C           121.92      1.13        30.65       
C           121.05      2.19        30.43       
C           121.35      3.55        30.71       
C           122.65      3.75        31.18       
N           119.74      2.15        29.92       
C           119.16      3.38        29.92       
C           120.13      4.38        30.42       
O           117.96      3.49        29.69       
C           119.13      0.99        29.28       
C           119.77      5.72        30.56       
C           118.65      6.58        30.09       
C           118.95      7.99        30.3        
N           120.26      8.03        30.89       
C           120.74      6.76        31.15       
C           117.51      6.41        29.31       
O           121.82      6.71        31.62       
C           121.01      9.26        31.12       
H           123.04      4.74        31.45       
H           121.69      0.08        30.37       
H           124.53      2.85        31.79       
H           118.35      10.05       30.28       
H           117.27      5.46        28.98       
H           115.69      7.2         28.71       
H           119.79      0.25        28.91       
H           118.48      1.39        28.52       
H           118.52243   0.45391     30.00908    
H           120.92      9.85        30.21       
H           120.61472   9.84252     31.95218    
H           122.04      9.02        31.34       
C           116.61      7.46        29.14       
C           118.09      9.05        30.03       
C           116.87      8.77        29.43       
C           127.0       -5.2        31.57       
S           125.44      -4.76       31.0        
C           127.73      -4.16       32.16       
C           127.02      -2.9        31.9        
C           125.77      -3.1        31.33       
N           127.25      -1.54       31.87       
C           126.05      -0.93       31.65       
C           125.16      -1.91       31.25       
C           128.47      -0.76       32.1        
H           128.34      0.18        31.63       
H           129.3       -1.21       31.59       
H           128.6787    -0.64555    33.16369    
H           125.97      1.15        31.96       
H           128.71      -4.25       32.51       
C           125.44      0.33        31.78       
S           123.59      -1.27       30.89       
C           124.14      0.32        31.45       
C           128.17      -16.3       32.63       
C           129.22      -15.51      33.07       
C           127.16      -15.74      31.8        
C           127.17      -14.38      31.58       
C           128.24      -13.53      32.0        
C           129.33      -14.18      32.71       
N           126.2       -13.66      30.81       
C           126.57      -12.39      30.74       
C           127.86      -12.14      31.59       
O           125.88      -11.58      30.22       
C           125.05      -14.26      30.25       
C           128.25      -10.79      31.86       
C           127.66      -9.44       31.75       
C           128.65      -8.46       32.04       
N           129.78      -9.1        32.58       
C           129.61      -10.47      32.44       
C           126.39      -8.9        31.36       
O           130.37      -11.22      32.91       
C           130.65      -8.58       33.67       
H           130.15      -13.62      32.99       
H           126.33      -16.4       31.43       
H           130.0       -15.87      33.74       
H           129.25      -6.4        32.08       
H           125.55      -9.5        31.16       
H           125.22      -7.09       30.94       
H           124.2       -13.62      30.4        
H           124.84      -15.21      30.63       
H           125.20807   -14.32774   29.17365    
H           130.05      -8.05       34.36       
H           131.41147   -7.88969    33.30705    
H           131.11      -9.43       34.17       
C           126.18      -7.54       31.3        
C           128.46      -7.15       31.9        
C           127.23      -6.65       31.61       
C           125.7       -22.98      35.84       
S           125.0       -22.0       34.53       
C           126.71      -22.28      36.41       
C           126.99      -21.1       35.74       
C           126.25      -20.88      34.57       
N           128.02      -20.14      35.73       
C           127.83      -19.3       34.71       
C           126.71      -19.65      33.94       
C           129.0       -19.97      36.75       
H           129.5       -19.02      36.57       
H           129.79      -20.72      36.75       
H           128.552     -19.9039    37.74148    
H           128.85      -17.37      35.13       
H           127.32      -22.78      37.13       
C           128.3       -18.06      34.45       
S           126.5       -18.55      32.67       
C           127.96      -17.64      33.2        
C           120.48      -32.34      39.61       
C           120.29      -31.78      38.32       
C           121.17      -31.46      40.44       
C           121.86      -30.33      39.99       
C           121.7       -29.82      38.64       
C           120.87      -30.64      37.81       
N           122.69      -29.54      40.76       
C           123.27      -28.58      39.98       
C           122.61      -28.62      38.56       
O           123.99      -27.7       40.41       
C           123.25      -29.88      42.04       
C           122.82      -27.7       37.59       
C           123.74      -26.54      37.43       
C           123.42      -25.92      36.19       
N           122.38      -26.6       35.56       
C           122.04      -27.68      36.29       
C           124.71      -25.85      38.2        
O           121.18      -28.45      35.77       
C           121.43      -26.07      34.51       
H           120.7       -30.43      36.78       
H           121.21      -31.76      41.49       
H           119.62      -32.33      37.67       
H           123.89      -24.56      34.63       
H           125.08      -26.22      39.12       
H           126.15      -24.1       38.12       
H           123.47      -29.03      42.64       
H           122.51      -30.4       42.58       
H           124.05738   -30.58021   41.82565    
H           121.61      -24.98      34.45       
H           121.48224   -26.66702   33.59954    
H           120.49      -26.2       34.93       
C           125.43      -24.7       37.59       
C           124.04      -24.78      35.68       
C           125.05      -24.19      36.33       
C           118.3       -39.22      42.71       
S           119.44      -37.99      43.24       
C           117.79      -39.01      41.41       
C           118.27      -37.75      40.94       
C           119.15      -37.06      41.84       
N           118.06      -36.92      39.83       
C           118.84      -35.79      40.0        
C           119.42      -35.77      41.27       
C           117.25      -37.19      38.68       
H           117.0       -36.27      38.12       
H           116.21      -37.52      39.06       
H           117.62077   -37.95294   37.99549    
H           118.86      -34.36      38.23       
H           117.06      -39.68      40.93       
C           119.22      -34.63      39.26       
S           120.37      -34.39      41.59       
C           120.01      -33.72      39.96       
C           114.59      -47.12      49.76       
C           114.87      -45.83      50.2        
C           114.95      -47.49      48.47       
C           115.54      -46.52      47.69       
C           115.89      -45.21      48.05       
C           115.57      -44.91      49.33       
N           115.86      -46.7       46.35       
C           116.44      -45.64      45.75       
C           116.39      -44.54      46.84       
O           116.74      -45.65      44.57       
C           115.66      -47.83      45.48       
C           116.75      -43.23      46.59       
C           117.19      -42.48      45.41       
C           117.43      -41.1       45.81       
N           117.27      -41.02      47.21       
C           116.85      -42.26      47.71       
C           117.42      -42.65      43.99       
O           116.78      -42.32      48.89       
C           117.69      -39.9       48.11       
H           115.7       -43.94      49.72       
H           114.77      -48.49      48.13       
H           114.57      -45.5       51.16       
H           117.75      -38.95      45.32       
H           117.42      -43.6       43.56       
H           117.79      -41.75      42.15       
H           116.47      -47.98      44.76       
H           115.6       -48.67      46.16       
H           114.67931   -47.63931   45.04414    
H           117.13      -39.86      49.05       
H           118.71976   -39.90701   48.46726    
H           117.43      -39.02      47.55       
C           117.71      -41.52      43.19       
C           117.76      -39.99      44.99       
C           117.9       -40.22      43.63       
C           110.91      -52.69      53.88       
S           110.74      -52.32      52.19       
C           111.67      -51.79      54.58       
C           112.24      -50.86      53.64       
C           111.96      -51.08      52.23       
N           113.16      -49.88      53.76       
C           113.48      -49.4       52.46       
C           112.7       -50.06      51.52       
C           113.29      -49.02      55.0        
H           113.78      -48.1       54.93       
H           113.89      -49.52      55.75       
H           112.30164   -48.75691   55.37686    
H           114.96      -47.65      52.51       
H           111.87      -51.82      55.65       
C           114.23      -48.27      51.93       
S           112.92      -49.33      49.94       
C           113.96      -48.08      50.59       
H           13.71       21.6        42.05       
H           110.14      -53.28      54.4        
