512

C           23.41       32.55       27.23       
C           22.48       33.58       27.11       
C           22.95       31.35       27.72       
C           21.6        31.29       28.12       
C           20.62       32.36       28.03       
C           21.08       33.5        27.47       
N           21.02       30.15       28.74       
C           19.68       30.45       29.01       
C           19.36       31.89       28.57       
O           19.03       29.67       29.67       
C           21.72       28.93       29.14       
C           18.1        32.47       28.67       
C           16.7        31.97       28.74       
C           15.82       33.06       28.56       
N           16.5        34.23       28.47       
C           17.85       33.98       28.61       
C           16.14       30.71       28.85       
O           18.63       34.87       28.64       
C           15.96       35.37       27.84       
H           20.41       34.3        27.16       
H           23.55       30.42       27.63       
H           22.82       34.51       26.73       
H           13.81       33.73       28.34       
H           16.76       29.79       28.85       
H           14.48       29.47       28.62       
H           22.63       28.72       28.6        
H           21.84       28.94       30.2        
H           21.1712     28.0057     28.95947    
H           15.07       35.73       28.37       
H           15.76785    35.20632    26.77963    
H           16.7        36.15       27.83       
C           14.79       30.48       28.68       
C           14.44       32.87       28.39       
C           13.92       31.58       28.54       
C           31.02       32.56       25.58       
S           29.91       31.3        26.03       
C           30.34       33.74       25.41       
C           28.99       33.7        25.71       
C           28.53       32.46       26.05       
N           27.93       34.58       25.79       
C           26.83       33.84       26.18       
C           27.15       32.48       26.32       
C           27.96       35.97       25.47       
H           27.04       36.41       25.95       
H           27.92       36.22       24.37       
H           28.81951    36.48145    25.90331    
H           24.9        35.04       26.58       
H           30.87       34.6        25.19       
C           25.41       34.04       26.51       
S           25.85       31.46       26.71       
C           24.79       32.82       26.8        
C           41.78       31.21       23.14       
C           41.26       30.87       24.35       
C           40.94       31.69       22.11       
C           39.57       31.8        22.4        
C           39.01       31.43       23.6        
C           39.88       30.96       24.62       
N           38.52       32.22       21.51       
C           37.31       32.25       22.21       
C           37.56       31.75       23.64       
O           36.24       32.37       21.66       
C           38.75       32.7        20.12       
C           36.54       31.5        24.53       
C           35.16       31.94       24.64       
C           34.55       31.35       25.75       
N           35.52       30.48       26.3        
C           36.74       30.58       25.69       
C           34.34       32.89       23.98       
O           37.61       29.73       26.01       
C           35.31       29.65       27.48       
H           39.63       30.67       25.61       
H           41.27       31.91       21.15       
H           41.82       30.52       25.2        
H           32.75       30.91       26.84       
H           34.8        33.51       23.24       
H           32.4        33.59       23.67       
H           38.99       33.77       20.08       
H           39.57       32.22       19.77       
H           37.97146    32.43819    19.40346    
H           35.91       28.76       27.52       
H           35.3916     30.22118    28.40477    
H           34.3        29.24       27.46       
C           32.98       32.96       24.21       
C           33.21       31.51       26.05       
C           32.39       32.4        25.33       
C           49.66       30.21       23.12       
S           48.56       30.2        24.5        
C           49.0        30.42       21.91       
C           47.6        30.61       22.09       
C           47.14       30.48       23.49       
N           46.47       30.74       21.28       
C           45.33       30.82       22.07       
C           45.73       30.61       23.42       
C           46.45       31.03       19.82       
H           45.43       31.31       19.59       
H           46.75       30.15       19.22       
H           47.11798    31.85599    19.57579    
H           43.43       31.1        20.87       
H           49.55       30.44       20.92       
C           43.94       30.98       21.86       
S           44.28       30.79       24.36       
C           43.23       31.01       23.02       
C           60.32       26.98       24.66       
C           60.09       28.08       23.86       
C           59.25       26.27       25.12       
C           57.96       26.63       24.7        
C           57.67       27.8        23.88       
C           58.8        28.61       23.57       
N           56.79       25.9        25.05       
C           55.71       26.58       24.52       
C           56.16       27.81       23.77       
O           54.63       26.05       24.48       
C           56.62       24.5        25.3        
C           55.25       28.64       23.13       
C           53.77       28.81       23.17       
C           53.38       29.92       22.37       
N           54.52       30.43       21.75       
C           55.69       29.7        22.06       
C           52.79       28.39       23.98       
O           56.82       29.98       21.64       
C           54.56       31.38       20.67       
H           58.61       29.56       23.04       
H           59.39       25.41       25.8        
H           61.0        28.62       23.52       
H           51.84       31.19       21.64       
H           53.0        27.64       24.69       
H           50.73       28.33       24.74       
H           55.97       23.92       24.57       
H           57.59       24.02       25.47       
H           56.14685    24.32857    26.26687    
H           53.54       31.72       20.42       
H           55.21167    32.24166    20.81482    
H           54.91       30.78       19.87       
C           51.49       28.81       24.05       
C           52.05       30.38       22.33       
C           51.08       29.86       23.22       
C           67.73       24.66       25.96       
S           67.14       25.73       24.64       
C           66.74       24.15       26.73       
C           65.51       24.79       26.38       
C           65.45       25.49       25.18       
N           64.22       24.81       26.92       
C           63.39       25.53       26.08       
C           64.08       25.9        24.98       
C           63.82       24.19       28.14       
H           62.74       24.43       28.4        
H           64.36       24.51       29.06       
H           63.76368    23.10593    28.04145    
H           61.31       25.69       26.88       
H           67.0        23.61       27.59       
C           62.05       25.83       26.08       
S           63.04       26.79       23.89       
C           61.68       26.53       24.98       
C           78.45       22.28       28.97       
C           78.14       23.57       28.41       
C           77.49       21.23       28.82       
C           76.23       21.57       28.39       
C           75.84       22.8        27.79       
C           76.89       23.78       27.78       
N           75.18       20.69       28.26       
C           74.05       21.32       27.71       
C           74.42       22.75       27.43       
O           73.05       20.65       27.5        
C           75.09       19.41       28.91       
C           73.46       23.54       26.79       
C           71.96       23.63       26.7        
C           71.55       24.74       25.94       
N           72.71       25.47       25.68       
C           73.88       24.8        26.05       
C           70.89       22.85       27.07       
O           74.97       25.31       25.85       
C           72.81       26.56       24.71       
H           76.62       24.78       27.36       
H           77.78       20.19       29.09       
H           78.84       24.36       28.53       
H           70.06       25.89       24.99       
H           71.13       21.89       27.5        
H           68.84       22.42       26.95       
H           74.98       18.71       28.06       
H           76.02       19.14       29.42       
H           74.30588    19.30861    29.66032    
H           71.99       26.47       23.98       
H           72.51292    27.52033    25.13144    
H           73.86       26.53       24.35       
C           69.58       23.21       26.83       
C           70.21       25.07       25.59       
C           69.18       24.34       26.14       
C           85.6        21.66       31.88       
S           84.96       22.71       30.59       
C           84.64       20.95       32.59       
C           83.38       21.15       31.85       
C           83.39       22.12       30.87       
N           82.12       20.56       31.96       
C           81.32       21.17       31.02       
C           82.1        22.19       30.39       
C           81.8        19.47       32.9        
H           80.74       19.36       32.85       
H           82.04       19.8        33.88       
H           82.35523    18.56865    32.64041    
H           79.15       20.46       31.06       
H           84.85       20.19       33.34       
C           79.93       21.08       30.62       
S           81.1        23.09       29.26       
C           79.71       22.06       29.58       
C           96.62       19.44       31.81       
C           96.2        20.73       31.79       
C           95.71       18.42       31.83       
C           94.34       18.74       31.79       
C           93.87       20.07       31.77       
C           94.85       21.1        31.8        
N           93.33       17.83       31.71       
C           92.08       18.49       31.68       
C           92.35       19.97       31.8        
O           91.13       17.79       31.49       
C           93.48       16.37       31.81       
C           91.34       20.89       31.78       
C           89.82       20.89       31.94       
C           89.28       22.14       31.67       
N           90.33       23.06       31.38       
C           91.54       22.39       31.51       
C           88.83       19.94       32.22       
O           92.56       23.0        31.26       
C           90.24       24.22       30.59       
H           94.54       22.16       31.91       
H           96.04       17.39       31.88       
H           96.94       21.55       31.71       
H           87.65       23.48       31.48       
H           89.01       18.91       32.44       
H           86.7        19.5        32.53       
H           94.26       16.01       31.17       
H           92.61       15.88       31.43       
H           93.70369    16.0834     32.83758    
H           89.45       24.11       29.85       
H           90.02519    25.12369    31.16036    
H           91.17       24.31       30.15       
C           87.42       20.23       32.28       
C           87.94       22.45       31.61       
C           87.0        21.48       31.91       
C           103.93      17.71       32.95       
S           102.44      16.97       33.48       
C           103.77      18.7        32.05       
C           102.38      18.91       31.78       
C           101.58      18.1        32.57       
N           101.56      19.83       31.09       
C           100.26      19.5        31.39       
C           100.23      18.45       32.27       
C           101.95      20.89       30.21       
H           103.04      20.7        29.92       
H           101.27      20.76       29.3        
H           101.80406   21.89765    30.59916    
H           98.75       20.95       30.72       
H           104.64      19.13       31.6        
C           99.0        19.99       31.18       
S           98.67       18.01       32.82       
C           98.04       19.21       31.81       
C           111.98      10.34       34.99       
C           112.29      11.47       34.23       
C           110.72      10.35       35.62       
C           109.81      11.36       35.47       
C           110.09      12.46       34.62       
C           111.31      12.44       34.01       
N           108.58      11.5        36.11       
C           107.99      12.68       35.81       
C           108.92      13.38       34.81       
O           106.92      12.99       36.16       
C           107.9       10.38       36.77       
C           108.5       14.57       34.07       
C           107.29      15.45       34.12       
C           107.31      16.27       32.92       
N           108.51      16.12       32.26       
C           109.24      15.12       32.88       
C           106.25      15.67       35.05       
O           110.38      14.88       32.54       
C           109.08      17.1        31.36       
H           111.71      13.31       33.39       
H           110.53      9.63        36.42       
H           113.25      11.59       33.91       
H           106.29      17.65       31.5        
H           106.26      15.07       35.91       
H           104.34      16.63       35.22       
H           106.92      10.62       37.14       
H           108.47      10.03       37.61       
H           107.75628   9.57927     36.04455    
H           110.16      17.22       31.55       
H           108.91309   16.83875    30.31502    
H           108.53      18.03       31.63       
C           105.2       16.44       34.6        
C           106.32      17.14       32.55       
C           105.17      17.11       33.36       
C           116.31      4.31        37.43       
S           114.55      4.61        37.65       
C           116.9       5.26        36.64       
C           116.05      6.3         36.23       
C           114.72      6.07        36.73       
N           116.21      7.58        35.68       
C           114.97      8.16        35.66       
C           114.04      7.24        36.24       
C           117.24      8.04        34.82       
H           117.38      9.06        34.93       
H           118.16      7.52        35.09       
H           117.01137   7.85172     33.77101    
H           114.85      10.17       34.77       
H           118.01      5.27        36.46       
C           114.33      9.28        35.11       
S           112.41      7.84        36.1        
C           112.93      9.3         35.24       
C           121.32      -4.02       42.8        
C           121.94      -3.32       41.74       
C           119.98      -3.86       43.17       
C           119.25      -2.86       42.53       
C           119.85      -2.11       41.46       
C           121.13      -2.42       40.99       
N           117.94      -2.57       42.66       
C           117.68      -1.44       41.91       
C           118.9       -1.09       41.06       
O           116.58      -0.93       41.99       
C           116.89      -3.11       43.49       
C           118.97      0.02        40.28       
C           117.99      0.94        39.57       
C           118.8       2.01        39.01       
N           120.14      1.84        39.37       
C           120.33      0.64        39.94       
C           116.59      1.06        39.41       
O           121.47      0.41        40.39       
C           121.16      2.86        39.5        
H           121.49      -1.95       40.09       
H           119.42      -4.49       43.83       
H           122.97      -3.47       41.51       
H           118.79      3.76        37.79       
H           115.89      0.37        39.8        
H           115.0       2.2         38.81       
H           116.86      -4.22       43.41       
H           115.93      -2.85       43.15       
H           116.91862   -2.71645    44.50607    
H           121.85      2.69        40.32       
H           121.69846   3.06102     38.57385    
H           120.57      3.7         39.9        
C           116.05      2.14        38.75       
C           118.21      3.0         38.27       
C           116.84      3.12        38.13       
C           124.36      -10.3       46.18       
S           122.7       -9.76       46.13       
C           125.31      -9.44       45.72       
C           124.64      -8.24       45.2        
C           123.25      -8.25       45.33       
N           125.05      -7.1        44.5        
C           123.86      -6.41       44.19       
C           122.79      -7.1        44.71       
C           126.36      -6.59       44.15       
H           126.19      -5.7        43.56       
H           127.01      -7.21       43.53       
H           126.8597    -6.25218    45.0579     
H           124.14      -4.39       43.16       
H           126.37      -9.67       45.68       
C           123.48      -5.14       43.58       
S           121.34      -6.27       44.45       
C           122.14      -5.03       43.44       
C           125.63      -21.52      47.5        
C           126.75      -20.68      47.38       
C           124.38      -20.87      47.48       
C           124.25      -19.45      47.35       
C           125.42      -18.61      47.33       
C           126.63      -19.3       47.27       
N           123.12      -18.72      47.51       
C           123.48      -17.35      47.5        
C           124.97      -17.22      47.27       
O           122.55      -16.6       47.67       
C           121.89      -19.22      48.06       
C           125.54      -15.96      47.34       
C           124.95      -14.55      47.16       
C           126.04      -13.61      47.21       
N           127.16      -14.32      47.56       
C           126.97      -15.7       47.69       
C           123.73      -14.0       46.76       
O           127.83      -16.48      48.0        
C           128.35      -13.69      48.14       
H           127.57      -18.79      47.28       
H           123.49      -21.49      47.52       
H           127.77      -21.1       47.47       
H           126.63      -11.43      47.09       
H           122.85      -14.64      46.59       
H           122.63      -12.38      45.86       
H           121.35      -18.45      48.63       
H           122.07      -20.02      48.86       
H           121.15887   -19.54901   47.32156    
H           128.11      -13.19      49.02       
H           128.95161   -13.12219   47.43024    
H           128.94      -14.47      48.52       
C           123.59      -12.7       46.39       
C           125.88      -12.19      46.89       
C           124.58      -11.75      46.52       
C           124.83      -28.92      50.22       
S           123.75      -27.79      49.58       
C           126.11      -28.5       49.9        
C           126.24      -27.12      49.36       
C           124.96      -26.62      49.13       
N           127.16      -26.15      49.01       
C           126.5       -25.03      48.55       
C           125.16      -25.37      48.5        
C           128.58      -26.25      48.98       
H           128.98      -25.36      48.49       
H           128.91      -27.16      48.47       
H           128.9823    -26.26437   49.99294    
H           127.78      -23.2       48.38       
H           126.95      -29.13      50.0        
C           126.79      -23.66      48.26       
S           124.3       -23.98      47.98       
C           125.7       -22.95      47.81       
C           119.3       -37.84      54.66       
C           118.8       -36.96      53.65       
C           120.54      -37.43      55.24       
C           121.2       -36.3       54.66       
C           120.75      -35.51      53.59       
C           119.45      -35.88      53.13       
N           122.42      -35.81      55.11       
C           122.75      -34.62      54.44       
C           121.73      -34.42      53.32       
O           123.67      -33.92      54.7        
C           123.36      -36.48      55.97       
C           121.91      -33.42      52.26       
C           123.0       -32.5       51.78       
C           122.48      -31.73      50.76       
N           121.23      -32.12      50.36       
C           120.78      -33.09      51.2        
C           124.3       -32.13      52.15       
O           119.73      -33.61      51.11       
C           120.58      -31.73      49.14       
H           118.91      -35.27      52.44       
H           121.01      -37.99      56.07       
H           117.77      -37.12      53.24       
H           122.59      -30.05      49.35       
H           124.85      -32.76      52.86       
H           125.74      -30.59      52.27       
H           123.54      -35.89      56.82       
H           122.93      -37.32      56.43       
H           124.31042   -36.75457   55.51239    
H           120.56      -30.62      49.06       
H           121.01239   -32.11986   48.21851    
H           119.59      -31.95      49.24       
C           124.81      -30.94      51.79       
C           123.05      -30.58      50.15       
C           124.3       -30.18      50.68       
C           115.45      -43.68      57.92       
S           117.07      -43.04      58.35       
C           114.94      -43.08      56.8        
C           115.74      -42.04      56.32       
C           116.95      -41.93      56.97       
N           115.57      -41.07      55.38       
C           116.7       -40.37      55.39       
C           117.6       -40.85      56.41       
C           114.47      -41.02      54.46       
H           114.34      -40.04      54.06       
H           113.52      -41.18      54.92       
H           114.62649   -41.73134   53.64907    
H           116.72      -38.66      53.94       
H           113.96      -43.21      56.45       
C           117.17      -39.22      54.72       
S           119.05      -39.87      56.49       
C           118.46      -38.96      55.09       
C           111.48      -53.21      62.37       
C           112.86      -52.9       62.43       
C           110.6       -52.32      61.81       
C           111.05      -51.05      61.36       
C           112.42      -50.71      61.43       
C           113.36      -51.65      61.94       
N           110.26      -50.06      60.8        
C           111.0       -48.95      60.71       
C           112.49      -49.33      60.96       
O           110.64      -47.87      60.34       
C           108.83      -50.14      60.41       
C           113.54      -48.45      60.74       
C           113.71      -47.15      60.05       
C           115.11      -46.83      60.02       
N           115.81      -47.77      60.85       
C           114.96      -48.68      61.24       
C           112.91      -46.24      59.33       
O           115.25      -49.49      62.13       
C           117.23      -47.75      61.2        
H           114.41      -51.5       61.86       
H           109.55      -52.58      61.66       
H           113.57      -53.51      63.04       
H           116.75      -45.72      59.39       
H           111.87      -46.26      59.23       
H           112.95      -44.48      58.09       
H           108.58      -49.45      59.69       
H           108.72      -51.15      60.0        
H           108.2027    -49.99579   61.28966    
H           117.37      -48.0       62.29       
H           117.85409   -48.30397   60.49877    
H           117.55      -46.72      61.23       
C           113.53      -45.18      58.66       
C           115.66      -45.78      59.37       
C           114.87      -44.89      58.61       
C           110.34      -60.13      66.1        
S           111.59      -59.5       65.11       
C           109.34      -59.17      66.15       
C           109.61      -57.98      65.36       
C           110.79      -58.05      64.7        
N           109.08      -56.73      65.06       
C           109.91      -56.02      64.26       
C           110.98      -56.87      63.93       
C           107.95      -56.25      65.73       
H           107.72      -55.34      65.16       
H           108.27      -56.03      66.76       
H           107.16496   -56.99968   65.63099    
H           109.18      -53.99      63.65       
H           108.48      -59.25      66.76       
C           109.88      -54.75      63.61       
S           112.02      -55.96      62.91       
C           111.06      -54.51      62.97       
H           12.84       31.53       28.57       
H           110.45      -60.98      66.77       
