512

C           27.85       11.96       36.6        
C           27.13       12.37       37.74       
C           27.19       11.35       35.51       
C           25.86       11.08       35.69       
C           25.09       11.36       36.85       
C           25.79       12.08       37.87       
N           25.13       10.27       34.79       
C           23.82       10.2        35.24       
C           23.73       10.72       36.69       
O           22.97       9.71        34.61       
C           25.6        9.48        33.65       
C           22.6        10.7        37.54       
C           21.21       10.49       37.32       
C           20.52       10.74       38.53       
N           21.35       11.17       39.46       
C           22.67       11.15       39.02       
C           20.45       10.22       36.21       
O           23.62       11.51       39.75       
C           21.08       11.39       40.84       
H           25.25       12.53       38.6        
H           27.76       11.01       34.59       
H           27.68       12.94       38.56       
H           18.59       10.78       39.48       
H           20.87       10.17       35.21       
H           18.51       9.66        35.43       
H           26.68       9.39        33.66       
H           25.22       8.48        33.8        
H           25.18311    9.8897      32.72997    
H           20.52       10.61       41.22       
H           20.7036     12.38675    41.07002    
H           22.03       11.37       41.45       
C           19.1        10.04       36.34       
C           19.13       10.49       38.6        
C           18.4        10.15       37.48       
C           35.63       12.84       37.63       
S           34.23       13.56       38.41       
C           35.22       12.07       36.61       
C           33.74       11.97       36.51       
C           33.07       12.78       37.37       
N           32.78       11.4        35.64       
C           31.55       11.83       36.0        
C           31.7        12.61       37.12       
C           33.03       10.39       34.68       
H           32.2        10.29       34.05       
H           33.09       9.45        35.16       
H           33.89337    10.6004     34.0488     
H           29.9        10.79       34.91       
H           35.93       11.48       36.08       
C           30.18       11.57       35.65       
S           30.09       13.1        37.74       
C           29.3        12.22       36.51       
C           45.98       14.11       41.65       
C           45.51       13.11       40.84       
C           45.03       15.15       41.92       
C           43.72       14.99       41.45       
C           43.21       13.9        40.79       
C           44.19       12.98       40.36       
N           42.63       15.84       41.73       
C           41.44       15.35       41.18       
C           41.76       14.05       40.6        
O           40.43       15.93       41.19       
C           42.69       17.05       42.55       
C           40.88       13.33       39.88       
C           39.5        13.47       39.38       
C           39.13       12.32       38.65       
N           40.13       11.39       38.67       
C           41.12       11.84       39.51       
C           38.47       14.37       39.53       
O           42.12       11.2        39.53       
C           40.07       10.04       38.02       
H           43.98       12.15       39.75       
H           45.34       16.12       42.41       
H           46.33       12.39       40.52       
H           37.68       11.16       37.46       
H           38.51       15.22       40.16       
H           36.4        14.84       39.11       
H           43.7        17.32       42.78       
H           42.34       17.99       42.04       
H           42.03417    16.95232    43.41513    
H           39.12       9.74        38.3        
H           40.27824    10.03282    36.9501     
H           40.81       9.38        38.49       
C           37.17       14.12       38.93       
C           37.91       12.12       38.0        
C           36.91       13.05       38.19       
C           53.35       15.02       43.93       
S           52.02       16.08       44.08       
C           53.03       13.82       43.4        
C           51.64       13.69       43.21       
C           50.93       14.88       43.46       
N           50.76       12.81       42.57       
C           49.6        13.5        42.42       
C           49.61       14.78       43.02       
C           51.04       11.59       41.86       
H           50.17       11.04       41.54       
H           51.55       10.88       42.44       
H           51.56616    11.80623    40.93021    
H           48.03       12.13       41.68       
H           53.82       13.11       43.09       
C           48.31       13.18       41.99       
S           48.09       15.53       42.89       
C           47.4        14.19       42.0        
C           62.65       19.48       48.05       
C           62.38       18.12       48.05       
C           61.87       20.3        47.27       
C           60.83       19.76       46.46       
C           60.53       18.38       46.48       
C           61.34       17.6        47.34       
N           59.91       20.36       45.59       
C           58.86       19.53       45.27       
C           59.32       18.08       45.62       
O           57.95       19.83       44.54       
C           60.17       21.65       44.91       
C           58.63       16.92       45.31       
C           57.21       16.68       44.92       
C           57.02       15.29       44.67       
N           58.31       14.66       44.79       
C           59.25       15.51       45.26       
C           56.01       17.41       45.02       
O           60.41       15.07       45.53       
C           58.63       13.39       44.17       
H           61.2        16.57       47.31       
H           62.04       21.35       47.21       
H           62.91       17.41       48.65       
H           55.79       13.66       43.9        
H           56.04       18.35       45.5        
H           53.95       17.52       44.63       
H           60.96       22.13       45.46       
H           60.52       21.49       43.87       
H           59.2899     22.29204    44.87393    
H           57.79       12.69       44.3        
H           58.8503     13.44685    43.10401    
H           59.44       13.01       44.74       
C           54.8        16.86       44.63       
C           55.83       14.72       44.2        
C           54.67       15.5        44.29       
C           68.93       22.71       51.54       
S           67.59       23.49       50.71       
C           68.83       21.32       51.5        
C           67.71       20.88       50.78       
C           66.94       21.94       50.23       
N           67.09       19.71       50.53       
C           65.94       19.96       49.84       
C           65.87       21.3        49.58       
C           67.34       18.4        51.1        
H           67.06       17.57       50.44       
H           66.7        18.25       51.98       
H           68.36183    18.21882    51.43336    
H           64.87       18.13       49.4        
H           69.62       20.66       51.96       
C           64.87       19.27       49.3        
S           64.42       21.65       48.66       
C           63.86       19.97       48.71       
C           77.4        28.53       56.26       
C           76.09       29.03       56.33       
C           77.53       27.36       55.54       
C           76.48       26.82       54.84       
C           75.17       27.23       54.99       
C           74.99       28.43       55.73       
N           76.57       25.69       54.03       
C           75.28       25.33       53.67       
C           74.21       26.38       54.17       
O           75.14       24.35       52.9        
C           77.72       24.76       54.02       
C           72.85       26.23       54.01       
C           72.01       25.09       53.5        
C           70.62       25.55       53.42       
N           70.5        26.86       53.97       
C           71.83       27.24       54.42       
C           72.25       23.73       53.1        
O           72.09       28.35       54.86       
C           69.32       27.6        54.29       
H           74.01       28.86       55.81       
H           78.54       27.03       55.45       
H           75.86       29.95       56.92       
H           68.72       25.3        52.33       
H           73.22       23.25       53.31       
H           71.32       22.02       52.23       
H           77.76       24.32       53.06       
H           78.61       25.36       54.09       
H           77.62964    24.0024     54.79845    
H           68.95       27.99       53.36       
H           68.54882    27.01811    54.79477    
H           69.66       28.5        54.86       
C           71.15       22.99       52.61       
C           69.61       24.81       52.71       
C           69.84       23.44       52.39       
C           84.36       30.53       59.04       
S           83.96       30.14       57.38       
C           83.27       30.62       59.92       
C           82.02       30.35       59.22       
C           82.23       30.14       57.8        
N           80.7        30.29       59.58       
C           80.04       29.94       58.38       
C           80.92       29.87       57.28       
C           80.08       30.33       60.86       
H           78.96       30.43       60.73       
H           80.48       31.21       61.44       
H           80.40629    29.51428    61.50516    
H           77.84       29.35       58.85       
H           83.38       30.77       61.01       
C           78.71       29.53       58.13       
S           80.03       29.39       55.88       
C           78.52       29.2        56.82       
C           94.68       30.9        63.25       
C           94.49       30.67       61.97       
C           93.59       31.16       64.09       
C           92.29       31.18       63.59       
C           92.02       30.92       62.24       
C           93.21       30.69       61.44       
N           91.04       31.55       64.25       
C           89.99       31.47       63.38       
C           90.53       30.96       62.07       
O           88.84       31.7        63.67       
C           90.99       32.05       65.59       
C           89.77       30.54       61.03       
C           88.38       30.85       60.54       
C           88.03       29.98       59.47       
N           89.22       29.35       59.0        
C           90.25       29.56       59.95       
C           87.39       31.75       60.93       
O           91.32       29.01       59.89       
C           89.16       28.25       58.03       
H           93.11       30.57       60.38       
H           93.73       31.3        65.13       
H           95.25       30.21       61.37       
H           86.55       29.08       58.22       
H           87.63       32.41       61.77       
H           85.31       32.3        60.64       
H           90.13       32.76       65.75       
H           91.91       32.61       65.72       
H           91.00433    31.20455    66.27783    
H           88.23       27.82       58.17       
H           89.25398    28.58254    56.99623    
H           90.02       27.62       58.31       
C           86.11       31.66       60.31       
C           86.76       29.87       58.95       
C           85.74       30.61       59.44       
C           101.62      28.05       65.06       
S           101.15      29.05       63.63       
C           100.69      28.13       66.05       
C           99.54       28.8        65.61       
C           99.57       29.29       64.34       
N           98.35       28.99       66.18       
C           97.58       29.68       65.25       
C           98.33       29.86       64.09       
C           97.8        28.3        67.32       
H           96.9        27.78       67.0        
H           98.46       27.54       67.7        
H           97.52223    29.0051     68.10344    
H           95.43       29.87       65.76       
H           100.88      27.7        67.02       
C           96.24       30.03       65.04       
S           97.38       30.46       62.75       
C           95.98       30.6        63.82       
C           109.97      21.03       66.1        
C           109.81      21.77       64.91       
C           109.19      21.38       67.17       
C           108.3       22.44       67.03       
C           108.13      23.21       65.81       
C           108.99      22.88       64.87       
N           107.47      22.94       68.01       
C           106.65      23.93       67.48       
C           107.04      24.18       66.05       
O           105.97      24.63       68.31       
C           107.46      22.47       69.36       
C           106.48      25.17       65.36       
C           105.17      25.8        65.46       
C           105.12      26.85       64.47       
N           106.34      26.97       63.77       
C           107.13      25.88       64.15       
C           104.15      25.62       66.34       
O           108.24      25.71       63.68       
C           106.71      27.81       62.6        
H           108.95      23.43       63.94       
H           109.22      20.89       68.17       
H           110.54      21.55       64.11       
H           103.95      28.28       63.5        
H           104.09      24.86       67.09       
H           102.3       26.24       66.97       
H           107.22      23.25       70.02       
H           108.46      22.12       69.7        
H           106.72119   21.67543    69.46455    
H           105.93      27.97       61.87       
H           107.08208   28.78763    62.90642    
H           107.49      27.26       62.09       
C           103.04      26.4        66.22       
C           103.93      27.51       64.23       
C           102.92      27.34       65.2        
C           114.98      15.29       67.87       
S           113.65      16.02       68.78       
C           115.22      15.97       66.67       
C           114.26      16.95       66.45       
C           113.31      17.11       67.47       
N           114.0       17.93       65.46       
C           112.84      18.59       65.82       
C           112.45      18.14       67.07       
C           114.68      18.09       64.2        
H           114.2       18.71       63.54       
H           115.64      18.61       64.43       
H           114.99056   17.15832    63.7271     
H           112.19      20.1        64.35       
H           116.09      15.81       66.1        
C           111.96      19.62       65.31       
S           111.02      18.95       67.66       
C           110.99      19.95       66.23       
C           120.11      6.12        72.14       
C           118.86      6.61        72.54       
C           120.71      6.81        71.12       
C           120.12      8.0         70.64       
C           118.82      8.47        70.98       
C           118.16      7.67        71.98       
N           120.7       8.94        69.74       
C           119.74      9.87        69.49       
C           118.51      9.71        70.32       
O           120.04      10.72       68.54       
C           122.07      9.22        69.38       
C           117.54      10.71       70.38       
C           117.17      11.88       69.53       
C           115.96      12.43       70.1        
N           115.61      11.75       71.25       
C           116.54      10.7        71.49       
C           117.62      12.52       68.36       
O           116.44      10.05       72.55       
C           114.29      11.73       71.91       
H           117.19      7.87        72.34       
H           121.69      6.5         70.72       
H           118.33      6.07        73.32       
H           114.59      14.05       70.24       
H           118.51      12.2        67.78       
H           117.11      14.06       66.84       
H           122.81      9.28        70.17       
H           122.18      10.25       69.07       
H           122.44712   8.61806     68.55323    
H           114.05      10.68       72.21       
H           114.19066   12.29055    72.83952    
H           113.51      12.08       71.15       
C           116.87      13.58       67.8        
C           115.35      13.56       69.63       
C           115.71      14.09       68.45       
C           121.59      -0.4        75.85       
S           120.36      -0.1        74.66       
C           122.52      0.57        76.02       
C           122.26      1.68        75.15       
C           121.08      1.45        74.41       
N           122.76      2.92        74.93       
C           121.89      3.55        74.03       
C           120.78      2.69        73.71       
C           123.81      3.52        75.72       
H           123.9       4.63        75.45       
H           124.78      3.06        75.53       
H           123.56597   3.50565     76.78224    
H           122.51      5.62        73.43       
H           123.4       0.46        76.73       
C           121.81      4.81        73.33       
S           119.55      3.5         72.85       
C           120.61      4.88        72.6        
C           118.77      -10.06      80.56       
C           119.25      -9.02       81.31       
C           118.81      -10.02      79.2        
C           119.35      -8.88       78.55       
C           119.92      -7.81       79.27       
C           119.87      -7.98       80.72       
N           119.5       -8.67       77.21       
C           120.02      -7.42       77.06       
C           120.34      -6.76       78.38       
O           120.28      -6.96       75.98       
C           118.74      -9.32       76.22       
C           120.76      -5.45       78.55       
C           121.02      -4.3        77.64       
C           121.45      -3.12       78.41       
N           121.49      -3.47       79.75       
C           121.13      -4.81       79.86       
C           120.94      -4.05       76.26       
O           121.23      -5.27       81.01       
C           121.24      -2.55       80.78       
H           120.27      -7.28       81.43       
H           118.36      -10.83      78.68       
H           119.28      -9.08       82.43       
H           121.95      -1.01       78.52       
H           120.73      -4.84       75.56       
H           120.91      -2.7        74.72       
H           118.2       -8.53       75.71       
H           118.02      -10.02      76.64       
H           119.39583   -9.82069    75.50775    
H           120.7       -1.7        80.39       
H           122.17839   -2.28496    81.2671     
H           120.51      -2.99       81.49       
C           121.13      -2.78       75.75       
C           121.68      -1.83       77.88       
C           121.42      -1.66       76.55       
C           114.37      -15.89      83.42       
S           114.58      -15.26      81.79       
C           114.98      -15.1       84.35       
C           115.8       -14.13      83.73       
C           115.77      -14.13      82.33       
N           116.76      -13.16      84.07       
C           117.19      -12.54      82.93       
C           116.56      -13.16      81.83       
C           117.23      -12.96      85.41       
H           117.87      -12.1       85.38       
H           117.91      -13.74      85.61       
H           116.42809   -12.88506   86.14446    
H           118.56      -10.84      83.28       
H           114.84      -15.26      85.42       
C           117.94      -11.39      82.58       
S           117.16      -12.38      80.4        
C           118.1       -11.2       81.24       
C           104.97      -21.62      84.64       
C           105.39      -21.11      83.43       
C           105.72      -21.43      85.74       
C           107.0       -20.95      85.61       
C           107.52      -20.51      84.32       
C           106.67      -20.64      83.21       
N           107.93      -20.68      86.59       
C           109.11      -20.25      86.01       
C           108.89      -19.96      84.5        
O           110.13      -20.05      86.67       
C           107.5       -20.65      87.97       
C           109.88      -19.43      83.69       
C           111.1       -18.61      83.91       
C           111.61      -18.26      82.62       
N           110.83      -18.89      81.59       
C           109.87      -19.62      82.21       
C           111.79      -18.1       85.02       
O           109.16      -20.28      81.51       
C           111.22      -19.32      80.24       
H           107.01      -20.26      82.26       
H           105.21      -21.7       86.67       
H           104.77      -21.13      82.57       
H           113.07      -17.28      81.51       
H           111.37      -18.3       85.99       
H           113.43      -16.83      85.72       
H           106.4       -20.8       88.2        
H           108.08      -21.52      88.45       
H           107.85747   -19.72057   88.41326    
H           110.74      -20.26      79.89       
H           111.17011   -18.53594   79.48445    
H           112.25      -19.59      80.29       
C           112.87      -17.23      84.87       
C           112.74      -17.54      82.48       
C           113.32      -16.93      83.59       
C           97.38       -23.23      84.52       
S           98.3        -22.09      83.6        
C           98.17       -23.86      85.5        
C           99.54       -23.51      85.38       
C           99.77       -22.56      84.36       
N           100.72      -23.89      85.92       
C           101.71      -23.23      85.24       
C           101.17      -22.37      84.31       
C           101.01      -25.07      86.76       
H           102.1       -25.32      86.81       
H           100.52      -25.93      86.27       
H           100.54356   -24.98646   87.74161    
H           103.69      -23.78      86.07       
H           97.79       -24.63      86.28       
C           103.08      -23.13      85.46       
S           102.52      -21.44      83.64       
C           103.64      -22.14      84.71       
C           86.54       -25.36      82.01       
C           87.17       -24.2       81.56       
C           87.28       -26.31      82.84       
C           88.59       -25.99      83.2        
C           89.28       -24.84      82.71       
C           88.51       -23.94      81.92       
N           89.54       -26.77      83.83       
C           90.76       -26.15      83.93       
C           90.66       -24.84      83.2        
O           91.73       -26.74      84.46       
C           89.27       -28.06      84.5        
C           91.86       -24.12      82.99       
C           93.26       -24.04      83.6        
C           93.99       -23.1       82.87       
N           93.18       -22.4       82.02       
C           91.9        -22.88      82.06       
C           93.87       -24.63      84.76       
O           91.08       -22.47      81.21       
C           93.61       -21.28      81.21       
H           88.86       -23.04      81.53       
H           86.9        -27.31      83.09       
H           86.62       -23.44      81.02       
H           95.89       -22.08      82.63       
H           93.37       -25.38      85.34       
H           95.73       -24.96      85.85       
H           88.16       -28.23      84.59       
H           89.74       -28.8       83.83       
H           89.63008    -28.06      85.52881    
H           92.73       -21.01      80.63       
H           93.97212    -20.44435   81.80888    
H           94.24       -21.62      80.43       
C           95.26       -24.37      85.05       
C           95.33       -22.79      83.19       
C           96.02       -23.51      84.23       
C           79.2        -25.63      79.42       
S           80.63       -24.91      78.7        
C           79.54       -26.44      80.5        
C           80.9        -26.38      80.91       
C           81.59       -25.62      79.99       
N           81.68       -26.68      82.0        
C           82.95       -26.26      81.65       
C           82.92       -25.58      80.41       
C           81.44       -27.74      82.95       
H           81.93       -27.55      83.91       
H           81.78       -28.67      82.6        
H           80.4141     -27.87082   83.29426    
H           84.35       -26.58      83.36       
H           78.71       -26.9       81.07       
C           84.22       -26.2       82.34       
S           84.51       -24.84      80.21       
C           85.19       -25.61      81.61       
H           17.56       9.41        37.56       
H           78.16       -25.27      79.3        
