512

C           24.23       25.29       9.88        
C           23.62       24.98       11.09       
C           23.55       25.37       8.71        
C           22.27       24.84       8.78        
C           21.6        24.53       9.98        
C           22.28       24.62       11.16       
N           21.46       24.86       7.68        
C           20.18       24.45       8.06        
C           20.22       24.13       9.53        
O           19.42       24.37       7.18        
C           21.78       24.85       6.25        
C           19.16       23.58       10.19       
C           17.77       23.11       9.76        
C           17.19       22.43       10.84       
N           17.98       22.46       11.97       
C           19.14       23.18       11.69       
C           16.95       23.27       8.66        
O           20.02       23.35       12.52       
C           17.75       21.62       13.09       
H           21.85       24.46       12.13       
H           24.07       25.55       7.75        
H           24.26       25.1        11.98       
H           15.52       21.28       11.73       
H           17.21       24.01       7.83        
H           14.96       22.89       7.8         
H           20.95       25.21       5.62        
H           22.53       25.57       5.99        
H           22.03569    23.82726    5.97301     
H           17.36       20.65       12.77       
H           17.20095    22.18277    13.84494    
H           18.76       21.47       13.45       
C           15.64       22.68       8.64        
C           15.98       21.75       10.79       
C           15.16       21.98       9.71        
C           31.8        26.13       11.45       
S           30.56       25.02       12.08       
C           31.19       27.11       10.75       
C           29.78       26.82       10.46       
C           29.31       25.65       11.06       
N           28.82       27.41       9.72        
C           27.65       26.64       9.83        
C           27.99       25.53       10.62       
C           28.99       28.81       9.37        
H           28.05       29.08       8.9         
H           29.8        29.04       8.68        
H           29.16       29.46165    10.22706    
H           25.85       27.49       8.87        
H           31.73       27.95       10.27       
C           26.33       26.71       9.4         
S           26.63       24.44       10.85       
C           25.7        25.63       9.98        
C           42.44       25.81       14.82       
C           41.46       25.01       15.35       
C           42.06       26.77       13.9        
C           40.75       26.84       13.44       
C           39.8        25.89       13.79       
C           40.15       25.04       14.86       
N           40.22       27.71       12.5        
C           38.9        27.42       12.19       
C           38.56       26.29       13.09       
O           38.3        28.15       11.47       
C           40.87       28.9        11.85       
C           37.33       25.69       13.01       
C           35.98       26.05       12.51       
C           35.1        24.98       12.73       
N           35.71       23.92       13.39       
C           37.07       24.24       13.45       
C           35.38       27.22       11.95       
O           37.86       23.4        14.0        
C           35.11       22.78       13.96       
H           39.49       24.36       15.32       
H           42.78       27.56       13.57       
H           41.82       24.29       16.1        
H           33.09       24.05       12.59       
H           36.05       28.12       11.96       
H           33.52       28.17       11.42       
H           40.21       29.72       11.81       
H           41.76       29.14       12.41       
H           41.21991    28.67606    10.84227    
H           35.83       21.98       14.21       
H           34.60083    22.99514    14.89945    
H           34.51       22.27       13.27       
C           34.06       27.23       11.68       
C           33.72       24.93       12.4        
C           33.25       26.09       11.81       
C           49.5        24.21       17.71       
S           47.9        23.86       18.4        
C           49.43       24.95       16.61       
C           48.07       25.09       16.21       
C           47.12       24.62       17.06       
N           47.44       25.68       15.14       
C           46.09       25.6        15.36       
C           45.86       24.99       16.56       
C           48.03       26.15       13.94       
H           47.39       26.15       13.02       
H           48.82       25.46       13.67       
H           48.48785    27.12909    14.08088    
H           44.97       26.41       13.62       
H           50.28       25.45       16.18       
C           44.97       25.98       14.61       
S           44.17       24.97       16.89       
C           43.81       25.71       15.33       
C           58.43       21.2        23.65       
C           58.46       21.56       22.33       
C           57.15       21.03       24.23       
C           56.02       21.19       23.43       
C           56.04       21.47       22.02       
C           57.35       21.77       21.51       
N           54.66       21.13       23.85       
C           53.79       21.46       22.76       
C           54.68       21.72       21.56       
O           52.56       21.34       22.7        
C           54.2        20.76       25.18       
C           54.18       22.11       20.31       
C           52.87       22.68       19.93       
C           52.87       22.73       18.52       
N           54.1        22.21       17.97       
C           54.94       21.83       19.02       
C           51.78       23.27       20.58       
O           56.07       21.48       18.79       
C           54.26       21.65       16.68       
H           57.52       22.07       20.54       
H           57.03       20.81       25.28       
H           59.39       21.76       21.83       
H           51.76       23.09       16.65       
H           51.84       23.47       21.63       
H           49.83       24.11       20.39       
H           54.12       19.65       25.3        
H           55.03       20.99       25.77       
H           53.309      21.26719    25.55011    
H           53.2        21.42       16.25       
H           54.71637    22.33456    15.96502    
H           54.77       20.73       16.83       
C           50.73       23.73       19.84       
C           51.77       23.18       17.73       
C           50.69       23.69       18.41       
C           65.19       21.62       27.78       
S           64.55       22.78       26.66       
C           64.37       20.54       27.91       
C           63.15       20.68       27.17       
C           63.08       21.77       26.38       
N           62.04       19.89       26.96       
C           61.3        20.48       25.98       
C           61.93       21.71       25.59       
C           61.78       18.57       27.53       
H           60.94       18.13       26.99       
H           61.45       18.68       28.58       
H           62.66555    17.94449    27.41755    
H           59.48       19.33       25.58       
H           64.72       19.67       28.43       
C           60.09       20.23       25.31       
S           60.89       22.5        24.39       
C           59.68       21.18       24.4        
C           75.2        22.33       32.7        
C           74.97       22.73       31.43       
C           74.11       21.88       33.52       
C           72.86       21.63       32.85       
C           72.68       22.05       31.52       
C           73.74       22.59       30.87       
N           71.77       20.97       33.33       
C           70.72       21.03       32.37       
C           71.24       21.78       31.12       
O           69.6        20.63       32.61       
C           71.84       20.01       34.4        
C           70.47       22.11       29.96       
C           69.01       21.9        29.6        
C           68.7        22.64       28.42       
N           69.87       23.18       27.94       
C           70.95       22.92       28.76       
C           67.97       21.17       30.14       
O           72.05       23.41       28.57       
C           69.98       23.95       26.75       
H           73.58       23.02       29.86       
H           74.23       21.55       34.53       
H           75.84       23.08       30.84       
H           67.18       23.16       26.94       
H           68.12       20.67       31.08       
H           66.09       20.49       30.02       
H           72.88       20.01       34.77       
H           71.09       20.22       35.22       
H           71.64885    19.01013    34.01035    
H           69.28       23.69       25.98       
H           69.79297    25.00742    26.93703    
H           71.02       23.87       26.36       
C           66.79       21.04       29.51       
C           67.46       22.53       27.81       
C           66.51       21.71       28.35       
C           82.32       23.58       35.63       
S           81.57       24.2        34.19       
C           81.46       22.7        36.26       
C           80.2        22.5        35.61       
C           80.11       23.31       34.42       
N           79.05       21.75       35.73       
C           78.24       22.12       34.7        
C           78.77       23.14       33.9        
C           78.81       20.62       36.58       
H           77.78       20.35       36.42       
H           78.99       20.95       37.66       
H           79.36545    19.75834    36.2097     
H           76.34       20.89       34.79       
H           81.87       22.15       37.17       
C           76.97       21.64       34.29       
S           77.64       23.55       32.6        
C           76.56       22.41       33.28       
C           92.15       26.29       39.88       
C           91.77       26.84       38.67       
C           91.11       25.76       40.68       
C           89.89       25.5        40.17       
C           89.49       25.94       38.84       
C           90.47       26.69       38.14       
N           88.84       24.76       40.77       
C           87.79       24.62       39.82       
C           88.12       25.51       38.61       
O           86.74       24.05       40.19       
C           88.79       24.3        42.14       
C           87.22       25.69       37.57       
C           86.1        24.86       37.07       
C           85.45       25.58       36.04       
N           86.27       26.61       35.61       
C           87.32       26.8        36.51       
C           85.54       23.67       37.5        
O           88.07       27.74       36.37       
C           85.9        27.67       34.76       
H           90.14       27.07       37.19       
H           91.26       25.46       41.73       
H           92.45       27.38       38.14       
H           83.61       25.72       34.87       
H           86.05       23.06       38.3        
H           83.85       22.44       37.52       
H           87.9        24.44       42.71       
H           89.52       24.79       42.78       
H           88.94699    23.22838    42.26286    
H           86.24       28.66       35.18       
H           86.11373    27.49764    33.70515    
H           84.91       27.7        34.93       
C           84.28       23.33       37.08       
C           84.19       25.15       35.58       
C           83.57       24.07       36.14       
C           99.52       25.17       42.14       
S           98.13       24.17       42.35       
C           99.31       26.28       41.37       
C           97.88       26.39       41.0        
C           97.17       25.28       41.4        
N           97.08       27.29       40.31       
C           95.78       26.81       40.38       
C           95.82       25.57       41.09       
C           97.4        28.58       39.78       
H           96.47       29.13       39.62       
H           97.83       29.35       40.52       
H           97.99232    28.51728    38.86713    
H           94.2        28.09       39.36       
H           100.03      26.96       41.03       
C           94.49       27.27       39.97       
S           94.13       25.08       41.35       
C           93.51       26.39       40.38       
C           108.53      19.27       44.94       
C           108.45      20.61       45.36       
C           107.58      18.78       44.07       
C           106.54      19.68       43.69       
C           106.42      21.05       44.14       
C           107.43      21.47       45.11       
N           105.54      19.38       42.83       
C           104.82      20.56       42.52       
C           105.29      21.65       43.45       
O           104.12      20.62       41.53       
C           105.18      18.12       42.22       
C           104.7       22.93       43.4        
C           103.33      23.29       43.04       
C           103.15      24.72       43.18       
N           104.24      25.22       43.85       
C           105.11      24.17       44.17       
C           102.2       22.61       42.6        
O           105.99      24.29       44.92       
C           104.46      26.62       44.04       
H           107.41      22.47       45.48       
H           107.64      17.88       43.49       
H           109.22      21.03       46.06       
H           101.79      26.43       43.18       
H           102.23      21.56       42.5        
H           100.26      22.52       41.94       
H           106.16      17.71       41.94       
H           104.51      18.25       41.36       
H           104.77444   17.43261    42.96238    
H           104.19      26.94       45.09       
H           105.49874   26.90133    43.86688    
H           103.87      27.29       43.35       
C           101.0       23.24       42.32       
C           101.94      25.4        42.9        
C           100.81      24.61       42.54       
C           113.9       13.69       45.77       
S           112.24      13.64       45.26       
C           114.27      15.01       46.04       
C           113.18      15.91       45.96       
C           112.01      15.36       45.41       
N           113.04      17.3        46.19       
C           111.73      17.59       45.85       
C           111.05      16.43       45.4        
C           114.13      18.24       46.56       
H           113.88      18.74       47.48       
H           115.13      17.74       46.69       
H           114.15188   19.04966    45.83057    
H           110.97      19.65       46.35       
H           115.32      15.24       46.36       
C           110.76      18.66       45.95       
S           109.39      16.73       44.93       
C           109.55      18.39       45.38       
C           119.73      4.31        47.47       
C           120.35      5.5         47.8        
C           118.44      4.19        46.86       
C           117.86      5.41        46.55       
C           118.44      6.69        46.77       
C           119.68      6.68        47.47       
N           116.57      5.56        45.97       
C           116.28      6.9         45.72       
C           117.47      7.69        46.23       
O           115.3       7.24        45.02       
C           115.73      4.48        45.46       
C           117.37      9.07        46.27       
C           116.25      10.07       46.19       
C           116.86      11.37       46.15       
N           118.25      11.25       46.22       
C           118.66      9.9         46.23       
C           114.83      10.08       46.26       
O           119.79      9.55        46.2        
C           119.25      12.33       46.25       
H           120.18      7.6         47.63       
H           118.0       3.21        46.63       
H           121.35      5.49        48.23       
H           116.59      13.4        45.96       
H           114.29      9.16        46.29       
H           113.01      11.15       46.12       
H           116.44      3.74        45.08       
H           114.99      4.8         44.71       
H           115.13505   4.1117      46.29576    
H           120.21      12.01       46.68       
H           119.51259   12.7166     45.26527    
H           118.76      13.13       46.77       
C           114.1       11.25       46.0        
C           116.12      12.5        45.98       
C           114.69      12.45       45.8        
C           122.26      -3.04       48.14       
S           120.78      -2.4        47.45       
C           122.95      -2.1        48.88       
C           122.37      -0.79       48.76       
C           121.2       -0.8        47.98       
N           122.63      0.52        49.25       
C           121.72      1.31        48.62       
C           120.92      0.55        47.78       
C           123.51      0.95        50.3        
H           123.15      1.93        50.69       
H           124.55      1.11        49.99       
H           123.4169    0.23384     51.11642    
H           121.97      3.43        49.15       
H           123.77      -2.43       49.54       
C           121.4       2.73        48.59       
S           119.83      1.6         46.97       
C           120.4       3.05        47.77       
C           123.01      -13.83      50.77       
C           124.2       -13.12      50.42       
C           121.85      -13.12      50.91       
C           121.78      -11.8       50.52       
C           122.89      -11.08      49.99       
C           124.1       -11.8       49.96       
N           120.64      -11.02      50.41       
C           120.93      -9.78       49.91       
C           122.44      -9.69       49.66       
O           120.06      -8.9        49.79       
C           119.29      -11.36      50.87       
C           123.1       -8.51       49.25       
C           122.67      -7.26       48.67       
C           123.78      -6.41       48.63       
N           124.95      -7.15       48.94       
C           124.59      -8.4        49.38       
C           121.46      -6.68       48.31       
O           125.33      -9.18       49.91       
C           126.3       -6.82       48.55       
H           124.96      -11.42      49.51       
H           120.92      -13.57      51.07       
H           125.15      -13.61      50.41       
H           124.66      -4.51       48.29       
H           120.54      -7.26       48.31       
H           120.36      -4.94       47.87       
H           118.85      -10.57      51.37       
H           119.38      -12.27      51.61       
H           118.61431   -11.59976   50.04899    
H           126.53      -5.87       48.87       
H           126.55167   -7.01414    47.50737    
H           126.96      -7.42       49.19       
C           121.37      -5.35       47.98       
C           123.71      -5.07       48.41       
C           122.51      -4.48       48.1        
C           121.6       -21.2       52.95       
S           120.53      -19.93      52.32       
C           123.0       -20.9       52.83       
C           123.19      -19.56      52.43       
C           121.97      -19.0       52.01       
N           124.26      -18.66      52.11       
C           123.74      -17.43      51.59       
C           122.35      -17.68      51.48       
C           125.72      -18.96      52.07       
H           126.35      -18.06      52.25       
H           126.01      -19.45      51.15       
H           125.93071   -19.68659   52.85471    
H           125.12      -15.69      51.35       
H           123.82      -21.64      53.01       
C           124.18      -16.09      51.3        
S           121.55      -16.23      51.17       
C           123.09      -15.3       50.97       
C           116.67      -30.49      56.76       
C           116.04      -29.24      56.72       
C           118.0       -30.58      56.36       
C           118.66      -29.43      55.9        
C           118.02      -28.13      55.86       
C           116.63      -28.07      56.33       
N           119.98      -29.3       55.47       
C           120.3       -28.02      55.22       
C           119.0       -27.17      55.23       
O           121.51      -27.71      54.99       
C           120.65      -30.33      54.69       
C           118.86      -25.83      54.76       
C           119.8       -24.8       54.33       
C           118.97      -23.74      53.83       
N           117.64      -24.08      53.8        
C           117.49      -25.26      54.36       
C           121.19      -24.56      54.37       
O           116.39      -25.81      54.26       
C           116.47      -23.4       53.23       
H           116.09      -27.15      56.46       
H           118.5       -31.51      56.36       
H           115.04      -29.17      57.09       
H           118.86      -21.77      53.0        
H           121.9       -25.28      54.85       
H           122.83      -23.33      53.82       
H           121.54      -30.51      55.2        
H           120.05      -31.2       54.83       
H           120.72218   -30.03407   53.64343    
H           115.59      -23.92      53.12       
H           116.17577   -22.46127   53.69937    
H           116.78      -23.18      52.23       
C           121.73      -23.47      53.73       
C           119.53      -22.51      53.41       
C           120.95      -22.43      53.3        
C           113.66      -37.29      59.24       
S           115.22      -36.54      59.52       
C           112.79      -36.38      58.67       
C           113.49      -35.17      58.3        
C           114.84      -35.12      58.6        
N           113.1       -33.93      57.82       
C           114.27      -33.19      57.67       
C           115.39      -33.97      58.08       
C           111.7       -33.45      57.71       
H           111.81      -32.49      57.16       
H           111.18      -33.07      58.62       
H           111.05621   -34.12917   57.1511     
H           113.9       -31.1       56.83       
H           111.75      -36.59      58.51       
C           114.6       -31.84      57.24       
S           116.83      -33.09      57.72       
C           115.92      -31.63      57.25       
C           110.67      -47.81      61.62       
C           111.98      -47.38      61.7        
C           109.69      -46.84      61.31       
C           110.0       -45.55      61.0        
C           111.3       -45.07      61.12       
C           112.27      -46.01      61.47       
N           109.08      -44.54      60.63       
C           109.76      -43.36      60.65       
C           111.24      -43.63      60.89       
O           109.24      -42.28      60.29       
C           107.59      -44.65      60.47       
C           112.22      -42.65      60.92       
C           112.34      -41.24      60.44       
C           113.59      -40.67      60.87       
N           114.26      -41.65      61.64       
C           113.54      -42.83      61.69       
C           111.7       -40.44      59.49       
O           114.03      -43.72      62.39       
C           115.51      -41.4       62.38       
H           113.3       -45.7       61.52       
H           108.64      -47.13      61.31       
H           112.74      -48.09      61.91       
H           115.14      -39.15      60.75       
H           110.94      -40.87      58.89       
H           111.71      -38.69      58.3        
H           107.46      -44.02      59.64       
H           107.29      -45.68      60.27       
H           107.1241    -44.25578   61.37312    
H           115.41      -41.91      63.33       
H           116.39227   -41.73989   61.83762    
H           115.44      -40.3       62.67       
C           112.16      -39.16      59.17       
C           114.07      -39.42      60.53       
C           113.28      -38.6       59.71       
C           107.45      -54.88      61.59       
S           106.75      -53.28      61.3        
C           108.74      -54.83      62.09       
C           109.19      -53.43      62.18       
C           108.25      -52.52      61.74       
N           110.34      -52.77      62.62       
C           110.11      -51.4       62.33       
C           108.83      -51.26      61.81       
C           111.5       -53.3       63.28       
H           112.27      -52.5       63.29       
H           111.82      -54.19      62.84       
H           111.2372    -53.5415    64.30991    
H           111.89      -50.19      62.78       
H           109.32      -55.72      62.4        
C           110.88      -50.24      62.42       
S           108.51      -49.57      61.5        
C           110.2       -49.19      61.93       
H           14.13       21.62       9.74        
H           106.91      -55.84      61.47       
