512

C           23.61       38.24       16.32       
C           23.0        37.01       16.22       
C           22.89       39.3        16.89       
C           21.5        39.03       17.21       
C           20.83       37.83       17.1        
C           21.61       36.85       16.52       
N           20.7        40.01       17.86       
C           19.45       39.44       18.04       
C           19.55       37.96       17.68       
O           18.63       40.17       18.64       
C           21.0        41.39       18.24       
C           18.67       37.05       18.06       
C           17.22       37.21       18.4        
C           16.68       35.94       18.64       
N           17.72       34.98       18.6        
C           18.92       35.54       18.19       
C           16.26       38.22       18.37       
O           19.94       34.92       18.01       
C           17.5        33.51       18.32       
H           21.09       35.92       16.35       
H           23.32       40.26       17.31       
H           23.53       36.11       15.89       
H           14.96       34.72       19.29       
H           16.52       39.2        18.25       
H           14.41       38.93       19.09       
H           20.64       41.56       19.21       
H           22.06       41.46       18.35       
H           20.55151    42.13982    17.58829    
H           16.63       33.28       17.78       
H           17.732      32.84212    19.14958    
H           18.26       33.29       17.53       
C           15.04       38.03       18.97       
C           15.33       35.71       19.0        
C           14.51       36.79       19.3        
C           31.43       38.4        16.09       
S           30.32       37.17       16.72       
C           30.73       39.55       15.72       
C           29.35       39.46       15.88       
C           28.96       38.21       16.32       
N           28.23       40.32       15.69       
C           27.14       39.5        15.96       
C           27.54       38.2        16.36       
C           28.1        41.69       15.27       
H           27.05       41.87       15.11       
H           28.62       41.85       14.34       
H           28.47199    42.31952    16.07835    
H           25.15       40.5        15.63       
H           31.22       40.39       15.24       
C           25.67       39.64       15.94       
S           26.2        37.17       16.65       
C           25.05       38.43       16.28       
C           42.58       37.33       17.22       
C           41.68       37.32       18.33       
C           42.08       37.7        15.95       
C           40.72       37.79       15.73       
C           39.8        37.64       16.82       
C           40.31       37.5        18.14       
N           40.09       38.11       14.51       
C           38.73       38.15       14.69       
C           38.44       37.78       16.15       
O           37.98       38.58       13.81       
C           40.82       38.24       13.23       
C           37.14       37.58       16.65       
C           35.73       37.97       16.24       
C           34.87       37.34       17.18       
N           35.57       36.61       18.17       
C           36.91       36.67       17.86       
C           35.11       38.63       15.14       
O           37.72       36.01       18.43       
C           35.1        36.06       19.39       
H           39.59       37.56       18.92       
H           42.75       37.72       15.05       
H           42.02       37.16       19.31       
H           32.85       37.03       17.87       
H           35.71       39.11       14.41       
H           33.3        39.26       14.25       
H           41.74       38.76       13.4        
H           41.19       37.26       12.87       
H           40.32189    38.75255    12.40703    
H           35.61       35.11       19.67       
H           35.19813    36.83806    20.14703    
H           34.05       35.79       19.27       
C           33.74       38.7        15.11       
C           33.47       37.49       17.08       
C           32.89       38.18       16.05       
C           50.02       34.74       18.2        
S           48.53       34.22       19.0        
C           49.77       35.8        17.34       
C           48.33       36.13       17.27       
C           47.55       35.4        18.21       
N           47.53       36.89       16.47       
C           46.3        36.79       16.99       
C           46.21       35.9        18.02       
C           47.94       37.86       15.46       
H           46.99       38.2        15.04       
H           48.38       37.43       14.64       
H           48.38457    38.77031    15.86223    
H           44.81       38.03       15.8        
H           50.61       36.27       16.7        
C           44.99       37.36       16.64       
S           44.6        35.86       18.71       
C           44.01       37.02       17.51       
C           59.52       28.62       19.18       
C           59.59       29.98       18.83       
C           58.25       28.01       19.45       
C           57.1        28.8        19.36       
C           57.13       30.18       18.92       
C           58.45       30.69       18.58       
N           55.79       28.34       19.66       
C           55.06       29.51       19.57       
C           55.77       30.72       19.02       
O           53.86       29.42       19.8        
C           55.41       27.3        20.6        
C           55.15       31.94       18.78       
C           53.71       32.44       18.79       
C           53.73       33.82       18.36       
N           55.05       34.24       18.09       
C           55.86       33.17       18.35       
C           52.42       31.91       18.89       
O           57.02       33.28       18.16       
C           55.66       35.51       17.74       
H           58.58       31.69       18.17       
H           58.16       27.0        19.71       
H           60.51       30.5        18.73       
H           52.69       35.65       17.96       
H           52.35       30.86       19.0        
H           50.26       32.24       18.86       
H           54.67       26.62       20.05       
H           56.09       26.48       20.79       
H           55.01033    27.65685    21.54922    
H           56.6        35.68       18.31       
H           55.72807    35.67337    16.66446    
H           55.1        36.3        18.26       
C           51.25       32.71       18.67       
C           52.55       34.58       18.11       
C           51.29       34.06       18.38       
C           65.65       25.74       22.78       
S           63.97       25.27       22.69       
C           65.89       26.71       21.88       
C           64.77       27.14       21.14       
C           63.67       26.44       21.53       
N           64.43       27.94       20.06       
C           63.04       27.84       19.9        
C           62.58       26.87       20.78       
C           65.18       28.77       19.14       
H           64.59       29.44       18.54       
H           65.83       28.2        18.48       
H           65.87813    29.41722    19.67087    
H           62.18       29.31       18.43       
H           66.89       27.12       21.76       
C           61.98       28.51       19.18       
S           60.9        26.7        20.72       
C           60.73       28.08       19.59       
C           72.93       19.95       28.83       
C           73.38       20.94       27.98       
C           71.57       19.9        29.18       
C           70.68       20.77       28.51       
C           71.11       21.71       27.61       
C           72.51       21.8        27.27       
N           69.31       20.77       28.71       
C           68.74       21.87       28.1        
C           69.88       22.44       27.21       
O           67.55       22.15       28.19       
C           68.55       19.59       29.06       
C           69.6        23.48       26.33       
C           68.43       23.88       25.53       
C           68.79       24.99       24.73       
N           70.12       25.22       24.91       
C           70.68       24.5        25.92       
C           67.09       23.55       25.45       
O           71.86       24.63       26.25       
C           70.8        26.42       24.48       
H           72.91       22.6        26.61       
H           71.15       19.19       29.88       
H           74.45       21.07       27.75       
H           68.26       26.51       23.35       
H           66.74       22.76       26.07       
H           65.13       23.97       24.6        
H           69.12       18.69       29.41       
H           67.82       19.86       29.86       
H           68.00023    19.21421    28.19708    
H           70.59       26.63       23.48       
H           70.58243    27.25402    25.14722    
H           71.88       26.28       24.48       
C           66.19       24.26       24.64       
C           67.86       25.69       23.93       
C           66.6        25.26       23.81       
C           78.92       16.59       32.3        
S           78.62       18.26       31.84       
C           77.85       15.73       32.05       
C           76.79       16.45       31.45       
C           77.03       17.8        31.33       
N           75.51       16.15       30.87       
C           74.97       17.36       30.57       
C           75.88       18.39       30.83       
C           75.06       14.92       30.29       
H           74.0        14.94       30.06       
H           75.13       14.14       31.03       
H           75.63713    14.7253     29.38606    
H           73.0        17.1        29.61       
H           77.87       14.68       32.26       
C           73.78       17.8        29.96       
S           75.3        19.87       30.22       
C           73.82       19.19       29.65       
C           89.31       13.79       35.23       
C           88.98       15.16       34.9        
C           88.25       12.87       35.28       
C           87.0        13.29       34.93       
C           86.66       14.58       34.53       
C           87.68       15.54       34.53       
N           85.95       12.41       34.83       
C           84.79       13.08       34.43       
C           85.22       14.56       34.36       
O           83.69       12.56       34.43       
C           85.95       10.96       34.67       
C           84.28       15.52       34.21       
C           82.93       15.43       33.67       
C           82.36       16.77       33.77       
N           83.29       17.66       34.35       
C           84.52       17.05       34.55       
C           81.96       14.51       33.08       
O           85.44       17.58       35.22       
C           83.09       19.05       34.72       
H           87.49       16.5        34.11       
H           88.4        11.82       35.57       
H           89.85       15.8        34.74       
H           80.61       18.1        33.65       
H           82.16       13.5        32.92       
H           80.04       14.03       32.31       
H           86.67       10.58       34.03       
H           85.01       10.68       34.27       
H           86.05021    10.49475    35.65061    
H           83.4        19.08       35.73       
H           83.58139    19.73093    34.02503    
H           81.99       19.25       34.81       
C           80.7        14.87       32.59       
C           81.07       17.1        33.39       
C           80.21       16.18       32.8        
C           96.53       10.89       36.55       
S           95.03       10.11       36.34       
C           96.25       12.21       36.57       
C           94.91       12.53       36.32       
C           94.03       11.48       36.11       
N           94.3        13.75       36.17       
C           92.96       13.46       35.95       
C           92.81       12.06       35.79       
C           94.9        15.05       36.06       
H           95.97       14.88       36.0        
H           94.66       15.54       35.08       
H           94.70675    15.67807    36.92964    
H           91.59       15.28       35.96       
H           97.03       12.87       36.77       
C           91.73       14.18       35.8        
S           91.11       11.7        35.38       
C           90.69       13.44       35.43       
C           105.34      4.66        39.17       
C           105.59      5.99        38.93       
C           104.02      4.24        39.12       
C           103.0       5.08        38.84       
C           103.19      6.42        38.45       
C           104.52      6.91        38.61       
N           101.64      4.7         38.79       
C           100.89      5.85        38.35       
C           101.88      6.95        37.99       
O           99.72       5.88        38.51       
C           101.02      3.44        39.1        
C           101.41      8.17        37.46       
C           100.11      8.64        36.97       
C           100.14      9.99        36.88       
N           101.47      10.42       36.92       
C           102.32      9.38        37.3        
C           98.86       8.05        36.74       
O           103.53      9.55        37.51       
C           101.98      11.67       36.5        
H           104.78      7.86        38.25       
H           103.75      3.23        39.49       
H           106.6       6.29        38.98       
H           99.13       11.8        36.64       
H           98.79       6.97        36.68       
H           96.76       8.19        36.43       
H           99.96       3.55        39.35       
H           101.46      3.02        40.06       
H           101.11644   2.74426     38.26649    
H           102.93      11.76       37.05       
H           101.95245   11.7251     35.41174    
H           101.4       12.42       36.96       
C           97.64       8.76        36.48       
C           99.04       10.78       36.72       
C           97.75       10.14       36.65       
C           110.22      -1.27       40.96       
S           108.56      -1.23       40.3        
C           110.55      0.02        41.27       
C           109.59      1.01        41.04       
C           108.43      0.5         40.42       
N           109.45      2.35        41.22       
C           108.24      2.73        40.64       
C           107.63      1.57        40.09       
C           110.38      3.24        41.78       
H           111.28      2.67        42.13       
H           110.69      3.88        41.02       
H           109.93026   3.75399     42.6295     
H           107.8       4.91        40.47       
H           111.57      0.19        41.73       
C           107.53      3.92        40.27       
S           106.16      1.98        39.22       
C           106.41      3.7         39.45       
C           116.32      -10.64      39.78       
C           116.66      -9.76       40.79       
C           115.35      -10.34      38.83       
C           114.66      -9.18       39.06       
C           114.97      -8.23       40.08       
C           116.05      -8.57       40.93       
N           113.45      -8.77       38.45       
C           112.94      -7.63       38.97       
C           113.97      -7.12       39.98       
O           112.03      -7.07       38.48       
C           113.0       -9.32       37.21       
C           113.65      -5.87       40.58       
C           112.51      -4.98       40.78       
C           112.97      -3.77       41.47       
N           114.31      -3.91       41.76       
C           114.76      -5.18       41.35       
C           111.17      -4.92       40.46       
O           115.93      -5.6        41.53       
C           115.13      -2.9        42.34       
H           116.42      -7.95       41.8        
H           115.1       -11.03      38.03       
H           117.42      -10.03      41.49       
H           112.7       -1.63       41.82       
H           110.74      -5.83       40.14       
H           109.34      -3.78       40.35       
H           113.84      -9.66       36.64       
H           112.64      -8.5        36.64       
H           112.24791   -10.09337   37.36609    
H           115.96      -3.44       42.89       
H           115.59013   -2.28888    41.56352    
H           114.49      -2.4        43.04       
C           110.43      -3.76       40.64       
C           112.23      -2.56       41.49       
C           110.96      -2.54       41.09       
C           118.95      -17.86      39.44       
S           117.32      -17.21      39.15       
C           119.93      -16.93      39.52       
C           119.31      -15.66      39.54       
C           117.91      -15.62      39.27       
N           119.77      -14.34      39.75       
C           118.63      -13.47      39.59       
C           117.49      -14.28      39.32       
C           121.01      -13.75      40.13       
H           120.86      -12.8       40.65       
H           121.68      -13.59      39.28       
H           121.45655   -14.34541   40.92636    
H           119.01      -11.35      40.16       
H           121.03      -17.19      39.69       
C           118.35      -12.12      39.8        
S           116.1       -13.28      39.19       
C           117.03      -11.86      39.62       
C           119.58      -29.2       39.92       
C           120.35      -28.39      40.72       
C           118.82      -28.57      38.91       
C           118.85      -27.14      38.82       
C           119.66      -26.33      39.59       
C           120.44      -27.02      40.59       
N           118.08      -26.43      37.96       
C           118.21      -25.05      38.15       
C           119.27      -24.92      39.24       
O           117.51      -24.2       37.67       
C           117.11      -26.9       36.94       
C           119.73      -23.6       39.64       
C           119.31      -22.19      39.39       
C           120.17      -21.31      40.14       
N           121.12      -22.1       40.84       
C           120.82      -23.42      40.78       
C           118.38      -21.46      38.65       
O           121.36      -24.27      41.42       
C           122.09      -21.61      41.83       
H           121.01      -26.52      41.37       
H           118.04      -29.16      38.43       
H           120.94      -28.78      41.53       
H           120.78      -19.28      40.74       
H           117.74      -21.91      37.94       
H           117.6       -19.56      38.01       
H           116.65      -26.01      36.44       
H           116.29      -27.49      37.36       
H           117.62566   -27.37883   36.10758    
H           121.7       -20.73      42.42       
H           123.06134   -21.40588   41.37952    
H           122.28      -22.37      42.55       
C           118.26      -20.03      38.7        
C           120.13      -19.93      40.13       
C           119.06      -19.3       39.46       
C           118.72      -36.19      43.39       
S           119.18      -34.56      44.0        
C           118.35      -36.16      42.02       
C           118.65      -34.84      41.4        
C           119.15      -33.94      42.38       
N           118.67      -34.25      40.19       
C           119.1       -32.98      40.39       
C           119.39      -32.7       41.71       
C           117.87      -34.63      39.04       
H           118.01      -33.85      38.24       
H           116.85      -34.51      39.33       
H           118.06684   -35.65065   38.71193    
H           118.84      -31.55      38.62       
H           117.89      -37.03      41.5        
C           119.18      -31.69      39.62       
S           119.85      -31.09      42.0        
C           119.46      -30.62      40.36       
C           116.93      -45.49      49.56       
C           115.96      -44.54      49.17       
C           118.22      -45.21      49.17       
C           118.53      -44.06      48.47       
C           117.58      -43.07      48.18       
C           116.25      -43.34      48.55       
N           119.78      -43.69      47.93       
C           119.71      -42.44      47.29       
C           118.29      -41.91      47.49       
O           120.75      -41.91      47.04       
C           120.99      -44.49      48.03       
C           117.97      -40.63      47.18       
C           118.48      -39.6       46.18       
C           117.64      -38.47      46.28       
N           116.71      -38.61      47.33       
C           116.88      -39.88      47.83       
C           119.37      -39.58      45.04       
O           116.18      -40.22      48.77       
C           115.51      -37.77      47.63       
H           115.49      -42.68      48.42       
H           118.98      -45.87      49.42       
H           114.92      -44.74      49.48       
H           117.07      -36.54      45.56       
H           120.04      -40.43      44.85       
H           120.13      -38.56      43.45       
H           121.74      -43.77      48.26       
H           120.94      -45.17      48.87       
H           121.23391   -45.05172   47.12829    
H           114.7       -38.4       48.09       
H           115.85773   -36.95616   48.26628    
H           115.0       -37.44      46.72       
C           119.4       -38.46      44.21       
C           117.67      -37.39      45.41       
C           118.61      -37.3       44.36       
C           113.85      -50.79      54.51       
S           113.05      -49.56      53.56       
C           115.21      -50.72      54.36       
C           115.56      -49.7       53.39       
C           114.49      -48.99      52.85       
N           116.82      -49.22      52.92       
C           116.52      -48.36      51.89       
C           115.1       -48.14      51.86       
C           118.18      -49.49      53.49       
H           118.78      -48.81      52.97       
H           118.48      -50.51      53.36       
H           118.24517   -49.30174   54.56164    
H           118.35      -47.59      50.9        
H           115.87      -51.42      54.95       
C           117.27      -47.55      50.96       
S           114.76      -46.83      50.75       
C           116.43      -46.67      50.31       
C           108.98      -60.21      58.19       
C           110.15      -59.71      58.86       
C           108.42      -59.43      57.18       
C           108.98      -58.18      56.85       
C           110.22      -57.78      57.38       
C           110.81      -58.58      58.39       
N           108.58      -57.28      55.87       
C           109.38      -56.14      55.88       
C           110.61      -56.45      56.74       
O           108.95      -55.1       55.44       
C           107.69      -57.67      54.76       
C           111.65      -55.52      56.84       
C           111.98      -54.34      56.07       
C           112.91      -53.54      56.91       
N           113.17      -54.15      58.17       
C           112.51      -55.39      58.18       
C           111.56      -53.64      54.97       
O           112.57      -56.1       59.17       
C           114.25      -53.77      59.09       
H           111.79      -58.28      58.82       
H           107.55      -59.83      56.68       
H           110.66      -60.36      59.6        
H           114.18      -51.75      56.85       
H           110.77      -54.06      54.39       
H           111.9       -52.19      53.42       
H           107.84      -58.73      54.61       
H           106.65      -57.38      55.03       
H           108.00428   -57.32156   53.77617    
H           113.87      -53.91      60.13       
H           115.16643   -54.3169    58.86828    
H           114.34      -52.69      58.98       
C           112.18      -52.52      54.4        
C           113.52      -52.44      56.31       
C           113.16      -51.96      55.05       
C           105.1       -66.78      59.73       
S           104.64      -65.42      58.75       
C           106.1       -66.47      60.52       
C           106.72      -65.23      60.21       
C           106.09      -64.55      59.14       
N           107.9       -64.49      60.53       
C           107.98      -63.4       59.7        
C           106.92      -63.44      58.77       
C           108.72      -64.68      61.7        
H           109.39      -63.84      61.73       
H           109.29      -65.59      61.61       
H           108.10809   -64.73627   62.60028    
H           109.57      -62.06      60.4        
H           106.61      -67.09      61.25       
C           108.79      -62.26      59.66       
S           107.13      -62.21      57.63       
C           108.37      -61.45      58.6        
H           13.77       36.68       20.08       
H           104.64      -67.82      59.67       
