512

C           20.88       32.91       15.89       
C           20.56       31.79       16.54       
C           19.9        33.76       15.43       
C           18.54       33.54       15.65       
C           18.15       32.33       16.26       
C           19.22       31.53       16.71       
N           17.43       34.33       15.28       
C           16.3        33.67       15.65       
C           16.65       32.28       16.15       
O           15.2        34.22       15.47       
C           17.48       35.59       14.59       
C           15.7        31.29       16.25       
C           14.23       31.27       16.33       
C           13.82       29.92       16.18       
N           14.98       29.13       15.88       
C           16.15       29.87       16.12       
C           13.17       32.15       16.55       
O           17.26       29.37       15.92       
C           15.15       27.78       15.41       
H           18.92       30.54       17.19       
H           20.13       34.72       14.95       
H           21.29       31.13       16.94       
H           12.31       28.44       15.94       
H           13.31       33.24       16.63       
H           11.07       32.31       16.9        
H           16.68       36.21       14.97       
H           18.4        36.1        14.78       
H           17.43651    35.40155    13.51729    
H           14.54       27.59       14.52       
H           14.93961    27.08571    16.22351    
H           16.13       27.65       14.99       
C           11.86       31.63       16.58       
C           12.53       29.49       16.08       
C           11.47       30.38       16.31       
C           28.55       34.01       15.07       
S           27.62       33.08       16.25       
C           27.74       34.66       14.16       
C           26.4        34.44       14.47       
C           26.09       33.59       15.62       
N           25.17       34.71       13.92       
C           24.2        34.05       14.7        
C           24.76       33.35       15.79       
C           24.88       35.46       12.7        
H           23.75       35.49       12.68       
H           25.26       35.01       11.87       
H           25.30527    36.45938    12.79214    
H           22.22       34.47       13.86       
H           28.11       35.43       13.49       
C           22.77       33.93       14.6        
S           23.52       32.53       16.73       
C           22.25       33.16       15.65       
C           39.71       34.37       14.83       
C           38.9        34.3        15.99       
C           39.06       34.39       13.64       
C           37.67       34.32       13.59       
C           36.87       34.27       14.75       
C           37.55       34.24       15.99       
N           36.81       34.26       12.45       
C           35.47       34.48       12.81       
C           35.44       34.24       14.35       
O           34.59       34.55       12.02       
C           37.32       34.24       11.05       
C           34.3        34.0        15.16       
C           32.88       34.08       14.89       
C           32.15       33.72       16.03       
N           33.01       33.32       16.99       
C           34.27       33.35       16.54       
C           32.07       34.48       13.84       
O           35.15       32.95       17.29       
C           32.6        32.95       18.36       
H           37.05       34.25       16.94       
H           39.66       34.51       12.66       
H           39.43       34.24       16.95       
H           30.15       33.16       16.93       
H           32.52       34.87       13.02       
H           30.12       34.95       13.24       
H           38.43       34.32       10.98       
H           37.15       33.22       10.56       
H           36.88713    35.00101    10.4007     
H           33.3        32.22       18.83       
H           32.40286    33.79699    19.01715    
H           31.69       32.44       18.23       
C           30.7        34.59       14.01       
C           30.73       33.62       16.11       
C           29.99       34.06       15.06       
C           47.36       32.99       15.58       
S           46.05       32.5        16.58       
C           46.88       33.54       14.41       
C           45.5        33.91       14.45       
C           44.91       33.42       15.59       
N           44.67       34.71       13.69       
C           43.43       34.54       14.28       
C           43.53       33.8        15.45       
C           44.9        35.52       12.53       
H           44.1        36.3        12.5        
H           44.77       34.99       11.56       
H           45.87117    36.01252    12.57856    
H           41.84       35.81       13.26       
H           47.44       33.62       13.51       
C           42.09       35.02       14.04       
S           41.91       33.52       16.14       
C           41.17       34.39       14.83       
C           57.54       28.56       16.48       
C           57.14       29.26       15.35       
C           56.68       28.59       17.64       
C           55.42       29.22       17.53       
C           55.01       29.96       16.36       
C           55.99       30.0        15.31       
N           54.43       29.21       18.44       
C           53.31       29.83       17.94       
C           53.69       30.5        16.57       
O           52.37       30.0        18.65       
C           54.53       28.59       19.76       
C           52.79       31.24       15.83       
C           51.31       31.48       15.89       
C           51.06       32.55       14.99       
N           52.18       32.93       14.19       
C           53.2        32.17       14.65       
C           50.33       30.92       16.62       
O           54.26       32.28       14.04       
C           52.31       33.74       13.01       
H           55.79       30.47       14.44       
H           56.97       28.01       18.52       
H           57.76       29.14       14.43       
H           49.44       33.7        14.16       
H           50.48       30.03       17.22       
H           48.34       30.92       17.22       
H           53.76       27.83       19.83       
H           55.47       27.99       19.83       
H           54.44782    29.30911    20.575      
H           51.32       33.9        12.58       
H           52.81605    34.70222    13.0884     
H           52.93       33.12       12.3        
C           49.03       31.42       16.54       
C           49.75       33.03       14.91       
C           48.72       32.44       15.69       
C           64.36       25.08       18.14       
S           62.84       25.09       19.0        
C           64.26       25.73       17.0        
C           63.01       26.35       16.78       
C           62.16       26.21       17.84       
N           62.42       27.23       15.81       
C           61.17       27.43       16.28       
C           60.97       26.84       17.57       
C           63.01       28.12       14.83       
H           62.29       28.63       14.21       
H           63.76       27.66       14.18       
H           63.59299    28.89495    15.32767    
H           60.04       28.55       14.82       
H           65.11       25.86       16.33       
C           59.99       28.05       15.78       
S           59.36       27.09       18.11       
C           58.9        27.93       16.61       
C           72.0        18.79       23.45       
C           72.25       20.1        22.91       
C           70.8        18.18       23.09       
C           69.9        18.93       22.28       
C           70.16       20.28       21.77       
C           71.38       20.81       22.07       
N           68.67       18.49       21.82       
C           68.02       19.52       21.19       
C           68.96       20.72       21.09       
O           66.9        19.35       20.73       
C           68.21       17.12       21.7        
C           68.66       21.81       20.28       
C           67.42       22.42       19.8        
C           67.76       23.57       18.98       
N           69.14       23.64       18.86       
C           69.7        22.81       19.8        
C           66.11       22.22       20.0        
O           70.93       22.71       19.9        
C           69.97       24.82       18.51       
H           71.67       21.8        21.7        
H           70.62       17.16       23.24       
H           73.17       20.44       23.2        
H           67.09       25.31       17.84       
H           65.62       21.37       20.52       
H           64.08       22.85       19.49       
H           69.01       16.45       22.14       
H           67.27       16.9        22.26       
H           68.24454    16.82984    20.6499     
H           69.65       25.31       17.56       
H           69.75109    25.63914    19.19497    
H           70.98       24.6        18.67       
C           65.14       23.09       19.38       
C           66.81       24.47       18.49       
C           65.47       24.23       18.69       
C           77.7        16.9        28.53       
S           77.64       17.96       27.14       
C           76.45       16.31       28.63       
C           75.54       16.61       27.59       
C           76.04       17.56       26.7        
N           74.27       16.25       27.1        
C           73.91       17.04       26.06       
C           74.98       17.91       25.78       
C           73.34       15.34       27.79       
H           72.48       15.22       27.13       
H           72.89       15.78       28.74       
H           73.78451    14.35927    27.95934    
H           71.8        16.76       25.45       
H           76.38       15.45       29.4        
C           72.76       17.25       25.28       
S           74.58       18.94       24.43       
C           72.96       18.25       24.38       
C           88.45       14.2        29.45       
C           87.93       15.47       29.21       
C           87.48       13.24       29.78       
C           86.16       13.66       29.95       
C           85.65       14.96       29.82       
C           86.64       15.92       29.47       
N           85.1        12.82       30.37       
C           83.89       13.51       30.44       
C           84.15       14.96       30.07       
O           82.87       13.06       31.0        
C           85.18       11.39       30.45       
C           83.15       15.96       30.02       
C           81.65       15.95       29.83       
C           81.2        17.29       29.68       
N           82.28       18.19       30.02       
C           83.41       17.46       30.15       
C           80.74       14.92       29.65       
O           84.45       18.05       30.34       
C           82.09       19.59       30.49       
H           86.41       17.03       29.34       
H           87.76       12.3        30.13       
H           88.6        16.22       28.93       
H           79.61       18.56       29.27       
H           80.99       13.89       29.56       
H           78.78       14.52       28.8        
H           85.73       10.89       29.66       
H           84.21       10.95       30.4        
H           85.48419    11.05683    31.44225    
H           82.56       19.77       31.37       
H           82.29878    20.31713    29.70528    
H           81.08       19.63       30.72       
C           79.41       15.26       29.3        
C           79.95       17.58       29.38       
C           79.0        16.6        29.15       
C           95.76       11.6        28.51       
S           94.35       10.82       29.2        
C           95.45       12.8        27.89       
C           94.11       13.28       28.24       
C           93.4        12.24       28.9        
N           93.31       14.34       27.87       
C           92.04       14.0        28.37       
C           92.02       12.73       29.02       
C           93.68       15.62       27.39       
H           93.46       16.38       28.06       
H           94.76       15.72       27.25       
H           93.19802    15.78302    26.42604    
H           90.49       15.59       27.99       
H           96.19       13.44       27.43       
C           90.71       14.6        28.46       
S           90.45       12.23       29.54       
C           89.8        13.84       29.15       
C           105.36      5.81        29.46       
C           105.15      6.6         28.4        
C           104.32      5.65        30.39       
C           103.2       6.47        30.29       
C           102.93      7.32        29.21       
C           103.97      7.32        28.21       
N           102.1       6.47        31.14       
C           101.22      7.39        30.69       
C           101.66      7.98        29.39       
O           100.25      7.61        31.37       
C           102.21      6.02        32.58       
C           100.99      9.02        28.77       
C           99.55       9.5         28.87       
C           99.47       10.71       28.09       
N           100.7       11.07       27.43       
C           101.57      10.0        27.7        
C           98.37       9.04        29.38       
O           102.68      10.11       27.3        
C           101.11      12.4        27.02       
H           103.79      7.89        27.33       
H           104.38      4.98        31.19       
H           105.97      6.85        27.67       
H           98.28       12.35       27.36       
H           98.33       8.13        29.96       
H           96.23       9.33        29.73       
H           101.9       6.81        33.28       
H           103.24      5.7         32.83       
H           101.46045   5.25618     32.78702    
H           102.22      12.51       27.24       
H           100.77858   12.67501    26.01869    
H           100.59      13.05       27.79       
C           97.16       9.74        29.21       
C           98.27       11.47       28.0        
C           97.05       10.95       28.56       
C           109.93      -0.36       30.56       
S           109.43      0.89        31.61       
C           109.65      0.01        29.22       
C           108.84      1.17        29.14       
C           108.69      1.81        30.39       
N           108.12      1.86        28.18       
C           107.6       2.91        28.86       
C           107.9       2.94        30.21       
C           107.77      1.51        26.82       
H           107.73      0.42        26.72       
H           106.84      1.84        26.46       
H           108.53676   1.90035     26.15082    
H           106.29      4.14        27.45       
H           109.86      -0.66       28.43       
C           106.74      3.99        28.47       
S           107.1       4.28        31.0        
C           106.46      4.86        29.49       
C           115.81      -9.29       34.54       
C           115.9       -7.91       35.03       
C           114.75      -9.5        33.64       
C           113.91      -8.37       33.22       
C           114.13      -7.01       33.61       
C           115.19      -6.79       34.45       
N           112.84      -8.47       32.27       
C           112.53      -7.16       31.88       
C           113.14      -6.16       32.87       
O           111.69      -6.98       31.05       
C           112.48      -9.58       31.48       
C           112.72      -4.8        32.94       
C           111.81      -3.89       32.23       
C           111.72      -2.63       33.02       
N           112.48      -2.73       34.17       
C           113.02      -3.99       34.18       
C           111.07      -3.91       31.04       
O           113.65      -4.33       35.13       
C           112.08      -2.02       35.28       
H           115.35      -5.85       34.81       
H           114.59      -10.5       33.23       
H           116.73      -7.68       35.73       
H           110.88      -0.66       33.24       
H           111.02      -4.81       30.46       
H           110.06      -2.91       29.57       
H           113.29      -10.35      31.38       
H           112.26      -9.23       30.48       
H           111.58159   -10.07378   31.85034    
H           112.12      -2.7        36.13       
H           112.74929   -1.17983    35.46512    
H           111.02      -1.76       35.19       
C           110.52      -2.73       30.53       
C           111.02      -1.52       32.59       
C           110.45      -1.56       31.25       
C           120.23      -15.41      36.14       
S           118.88      -15.23      34.99       
C           120.39      -14.34      36.99       
C           119.57      -13.28      36.66       
C           118.7       -13.57      35.6        
N           119.28      -11.93      37.05       
C           118.26      -11.49      36.25       
C           117.9       -12.45      35.37       
C           119.99      -11.11      38.01       
H           119.26      -10.51      38.51       
H           120.68      -10.51      37.46       
H           120.40305   -11.7187    38.81435    
H           117.68      -9.51       36.62       
H           121.29      -14.3       37.63       
C           117.54      -10.32      36.03       
S           116.73      -11.87      34.24       
C           116.66      -10.33      35.03       
C           122.16      -26.23      37.78       
C           122.21      -25.33      38.83       
C           122.24      -25.75      36.44       
C           122.26      -24.35      36.26       
C           122.2       -23.43      37.28       
C           122.16      -23.95      38.59       
N           122.3       -23.73      35.04       
C           122.24      -22.35      35.2        
C           122.09      -22.05      36.68       
O           122.23      -21.66      34.16       
C           122.66      -24.42      33.83       
C           122.11      -20.7       37.07       
C           121.75      -19.41      36.43       
C           121.88      -18.41      37.45       
N           122.37      -18.97      38.62       
C           122.44      -20.38      38.43       
C           121.21      -18.92      35.24       
O           122.79      -21.07      39.34       
C           122.78      -18.36      39.88       
H           122.22      -23.37      39.47       
H           122.33      -26.4       35.55       
H           122.23      -25.62      39.83       
H           121.61      -16.39      38.08       
H           121.11      -19.56      34.41       
H           120.45      -17.19      34.17       
H           123.44      -25.26      33.96       
H           123.08      -23.7       33.13       
H           121.75542   -24.80162   33.35651    
H           122.03      -17.61      40.24       
H           123.73975   -17.85831   39.7564     
H           122.98      -19.15      40.61       
C           120.73      -17.6       35.11       
C           121.5       -17.14      37.27       
C           120.93      -16.69      36.1        
C           122.1       -33.58      40.61       
S           121.52      -32.08      41.29       
C           122.58      -33.43      39.28       
C           122.43      -32.08      38.91       
C           122.03      -31.16      39.89       
N           122.66      -31.33      37.75       
C           122.43      -30.04      38.02       
C           121.95      -29.88      39.31       
C           122.98      -31.77      36.43       
H           123.29      -30.9       35.88       
H           122.15      -32.17      35.99       
H           123.83956   -32.43933   36.39477    
H           122.98      -28.7       36.37       
H           122.91      -34.31      38.72       
C           122.54      -28.83      37.3        
S           121.53      -28.22      39.65       
C           122.1       -27.69      38.07       
C           117.12      -41.89      45.89       
C           117.43      -40.69      46.54       
C           117.81      -42.21      44.74       
C           118.72      -41.28      44.2        
C           118.96      -40.01      44.85       
C           118.31      -39.78      46.09       
N           119.48      -41.39      43.05       
C           120.2       -40.17      42.86       
C           119.84      -39.21      43.96       
O           120.91      -40.13      41.86       
C           119.19      -42.3       42.02       
C           120.41      -37.96      44.0        
C           120.93      -37.07      42.96       
C           121.14      -35.78      43.54       
N           120.74      -35.78      44.87       
C           120.33      -37.08      45.23       
C           121.16      -37.13      41.51       
O           120.1       -37.42      46.41       
C           120.03      -34.73      45.5        
H           118.42      -38.85      46.62       
H           117.62      -43.16      44.24       
H           116.79      -40.47      47.41       
H           121.65      -33.8       43.46       
H           120.83      -37.94      40.93       
H           121.69      -36.03      39.78       
H           120.01      -42.37      41.32       
H           119.14      -43.35      42.4        
H           118.25345   -42.08552   41.50525    
H           119.18      -35.12      46.05       
H           120.65561   -34.15252   46.18061    
H           119.41      -34.12      44.79       
C           121.77      -36.03      40.83       
C           121.6       -34.7       42.88       
C           121.93      -34.78      41.47       
C           111.8       -47.45      47.37       
S           112.12      -46.45      45.96       
C           112.42      -46.97      48.5        
C           113.39      -45.93      48.22       
C           113.22      -45.49      46.89       
N           114.33      -45.07      48.85       
C           114.87      -44.25      47.8        
C           114.14      -44.49      46.66       
C           114.89      -45.23      50.21       
H           115.24      -44.27      50.69       
H           115.87      -45.8       50.21       
H           114.19944   -45.7243    50.89329    
H           116.6       -42.97      48.49       
H           112.31      -47.45      49.45       
C           115.87      -43.27      47.69       
S           115.06      -43.73      45.35       
C           116.08      -42.83      46.42       
C           104.78      -56.35      46.45       
C           105.85      -56.36      47.35       
C           104.54      -55.15      45.7        
C           105.28      -54.05      45.92       
C           106.43      -53.99      46.72       
C           106.72      -55.22      47.31       
N           105.03      -52.77      45.4        
C           105.97      -51.86      45.92       
C           107.01      -52.66      46.76       
O           105.97      -50.65      45.65       
C           104.01      -52.49      44.4        
C           108.14      -52.06      47.32       
C           108.95      -50.77      47.12       
C           109.92      -50.69      48.18       
N           109.75      -51.8       49.02       
C           108.83      -52.7       48.51       
C           108.94      -49.72      46.28       
O           108.55      -53.65      49.24       
C           110.28      -51.87      50.41       
H           107.55      -55.22      48.02       
H           103.62      -55.16      45.06       
H           106.0       -57.13      48.07       
H           111.47      -49.58      49.17       
H           108.21      -49.63      45.47       
H           109.74      -47.89      45.63       
H           103.66      -53.33      43.88       
H           103.12      -51.94      44.76       
H           104.49627   -52.0593    43.52471    
H           109.57      -52.09      51.2        
H           111.15829   -52.51455   50.44542    
H           110.48      -50.86      50.77       
C           109.86      -48.67      46.38       
C           110.79      -49.58      48.33       
C           110.87      -48.63      47.29       
C           98.49       -61.02      46.55       
S           98.92       -59.61      45.62       
C           99.61       -61.53      47.16       
C           100.79      -60.69      47.01       
C           100.53      -59.63      46.15       
N           102.12      -60.56      47.52       
C           102.67      -59.4       46.97       
C           101.72      -58.82      46.15       
C           102.87      -61.48      48.39       
H           103.75      -60.99      48.67       
H           103.13      -62.34      47.87       
H           102.29341   -61.70925   49.28615    
H           104.59      -58.74      47.96       
H           99.53       -62.36      47.85       
C           103.83      -58.6       47.25       
S           102.4       -57.41      45.41       
C           103.86      -57.51      46.47       
H           10.47       30.29       15.97       
H           97.48       -61.18      46.89       
