512

C           26.56       32.72       27.12       
C           26.38       33.86       27.82       
C           25.42       31.94       26.82       
C           24.22       32.32       27.28       
C           24.03       33.46       28.1        
C           25.18       34.27       28.31       
N           23.02       31.64       27.18       
C           22.02       32.38       27.72       
C           22.63       33.57       28.41       
O           20.94       31.9        27.74       
C           22.8        30.61       26.22       
C           21.91       34.51       29.2        
C           20.45       34.84       29.41       
C           20.49       35.93       30.3        
N           21.79       36.2        30.77       
C           22.69       35.33       30.19       
C           19.24       34.47       28.9        
O           23.82       35.21       30.65       
C           21.99       37.09       31.91       
H           25.14       35.14       28.89       
H           25.5        30.97       26.35       
H           27.25       34.39       28.18       
H           19.3        37.33       31.45       
H           19.1        33.68       28.18       
H           17.15       34.79       28.89       
H           23.71       30.09       25.9        
H           22.36       29.82       26.8        
H           22.34538    30.98648    25.30366    
H           21.22       36.88       32.61       
H           22.05251    38.14572    31.64607    
H           22.88       36.79       32.43       
C           18.08       35.16       29.25       
C           19.37       36.55       30.69       
C           18.17       36.2        30.18       
C           34.0        30.89       26.1        
S           33.19       31.69       27.44       
C           33.13       30.46       25.15       
C           31.78       30.68       25.47       
C           31.66       31.52       26.61       
N           30.53       30.53       24.9        
C           29.63       31.2        25.69       
C           30.29       31.82       26.75       
C           30.19       29.62       23.91       
H           29.16       29.76       23.72       
H           30.42       28.62       24.2        
H           30.69539    29.92323    22.99308    
H           27.51       31.13       25.14       
H           33.4        29.82       24.3        
C           28.24       31.43       25.82       
S           29.22       32.69       27.83       
C           27.9        32.23       26.84       
C           45.06       32.41       24.85       
C           44.43       32.48       26.09       
C           44.33       31.92       23.79       
C           42.98       31.52       24.08       
C           42.3        31.63       25.34       
C           43.07       32.1        26.38       
N           42.15       31.06       23.08       
C           40.86       30.91       23.56       
C           40.9        31.27       25.07       
O           39.94       30.56       22.89       
C           42.66       30.15       22.05       
C           39.77       31.21       25.87       
C           38.3        31.1        25.66       
C           37.65       31.05       26.92       
N           38.59       31.12       27.93       
C           39.87       31.13       27.4        
C           37.42       31.02       24.58       
O           40.85       30.97       28.06       
C           38.21       31.21       29.34       
H           42.59       32.25       27.32       
H           44.72       31.91       22.75       
H           44.96       32.98       26.88       
H           35.83       30.8        28.03       
H           37.84       31.11       23.61       
H           35.45       30.88       23.87       
H           42.16       30.37       21.07       
H           43.76       30.38       21.9        
H           42.46353    29.11154    22.31663    
H           38.6        30.4        29.87       
H           38.5255     32.15651    29.77896    
H           37.14       31.2        29.45       
C           36.04       30.9        24.72       
C           36.28       30.96       27.07       
C           35.48       30.9        25.98       
C           52.53       34.7        24.49       
S           51.71       33.79       25.67       
C           51.66       35.0        23.42       
C           50.36       34.53       23.59       
C           50.19       33.84       24.84       
N           49.12       34.62       22.94       
C           48.22       33.85       23.72       
C           48.85       33.39       24.92       
C           48.79       35.45       21.79       
H           47.73       35.4        21.44       
H           49.3        35.13       20.86       
H           48.99073    36.49519    22.02534    
H           46.27       33.53       22.67       
H           51.97       35.53       22.56       
C           46.92       33.43       23.56       
S           47.66       32.52       25.89       
C           46.4        32.85       24.69       
C           63.26       33.71       22.13       
C           62.51       34.66       21.47       
C           62.74       33.01       23.24       
C           61.48       33.35       23.69       
C           60.63       34.31       23.05       
C           61.19       34.98       21.91       
N           60.86       32.84       24.84       
C           59.6        33.3        25.01       
C           59.34       34.23       23.8        
O           58.86       32.95       25.87       
C           61.64       32.33       25.97       
C           58.2        34.99       23.74       
C           56.75       34.77       24.12       
C           55.97       35.9        23.72       
N           56.82       36.76       23.07       
C           58.07       36.27       22.97       
C           56.08       33.68       24.8        
O           58.93       36.91       22.35       
C           56.47       37.97       22.39       
H           60.57       35.69       21.34       
H           63.33       32.22       23.77       
H           62.82       35.2        20.54       
H           54.01       36.77       23.6        
H           56.63       32.78       25.1        
H           54.31       32.84       25.28       
H           61.02       31.49       26.39       
H           62.59       31.91       25.66       
H           61.82313    33.0761     26.74323    
H           55.51       37.93       21.93       
H           56.44015    38.85055    23.03175    
H           57.25       38.13       21.7        
C           54.71       33.76       24.89       
C           54.56       35.89       23.85       
C           53.94       34.85       24.45       
C           70.28       30.92       19.89       
S           69.25       30.39       21.25       
C           69.78       32.02       19.27       
C           68.52       32.44       19.83       
C           68.14       31.69       20.95       
N           67.63       33.44       19.63       
C           66.59       33.31       20.46       
C           66.81       32.2        21.27       
C           67.87       34.6        18.82       
H           66.98       35.2        19.0        
H           67.86       34.32       17.81       
H           68.79958    35.11721    19.05764    
H           65.15       34.85       20.09       
H           70.24       32.46       18.42       
C           65.4        34.01       20.75       
S           65.43       31.88       22.24       
C           64.53       33.36       21.66       
C           78.76       24.26       17.76       
C           78.91       25.63       17.51       
C           77.5        23.74       17.91       
C           76.38       24.62       18.05       
C           76.57       26.0        17.87       
C           77.82       26.52       17.64       
N           75.05       24.22       18.3        
C           74.26       25.36       18.2        
C           75.2        26.58       18.02       
O           72.99       25.44       18.23       
C           74.63       22.86       18.5        
C           74.76       27.89       18.03       
C           73.51       28.48       18.71       
C           73.45       29.84       18.3        
N           74.56       30.12       17.54       
C           75.41       29.06       17.35       
C           72.5        28.0        19.5        
O           76.29       29.03       16.59       
C           74.55       31.21       16.59       
H           78.0        27.59       17.53       
H           77.37       22.64       18.04       
H           79.96       26.03       17.43       
H           72.38       31.71       18.38       
H           72.55       26.97       19.87       
H           70.78       28.47       20.63       
H           75.13       22.13       17.91       
H           74.91       22.6        19.51       
H           73.56313    22.68219    18.36486    
H           75.59       31.37       16.33       
H           73.93602    31.05309    15.70314    
H           74.19       32.12       17.08       
C           71.5        28.84       19.91       
C           72.44       30.7        18.72       
C           71.43       30.18       19.53       
C           85.47       20.47       18.61       
S           85.11       22.16       18.27       
C           84.35       19.81       18.75       
C           83.17       20.57       18.66       
C           83.44       21.86       18.36       
N           81.82       20.39       18.84       
C           81.25       21.6        18.44       
C           82.19       22.52       18.13       
C           81.07       19.21       19.27       
H           80.08       19.42       19.11       
H           81.37       18.85       20.25       
H           81.30247    18.31536    18.69236    
H           79.03       21.6        18.43       
H           84.33       18.8        18.98       
C           79.94       22.1        18.15       
S           81.54       24.11       17.88       
C           79.93       23.39       17.84       
C           95.67       16.29       20.68       
C           95.49       17.6        20.06       
C           94.64       15.54       21.1        
C           93.36       16.09       20.82       
C           93.14       17.41       20.31       
C           94.3        18.22       20.12       
N           92.1        15.45       21.0        
C           91.07       16.3        20.69       
C           91.65       17.63       20.15       
O           89.86       16.03       20.81       
C           91.83       14.02       20.92       
C           90.9        18.73       19.86       
C           89.47       18.94       19.48       
C           89.13       20.31       19.44       
N           90.28       21.01       19.81       
C           91.3        20.16       20.13       
C           88.41       18.11       19.15       
O           92.39       20.53       20.56       
C           90.24       22.38       20.21       
H           94.19       19.23       19.69       
H           94.78       14.46       21.32       
H           96.32       18.23       19.81       
H           87.58       21.9        19.24       
H           88.54       17.07       19.13       
H           86.35       17.91       18.69       
H           92.79       13.57       20.72       
H           91.17       13.88       20.04       
H           91.3107     13.63404    21.79719    
H           90.85       22.53       21.14       
H           90.5003     23.11752    19.45079    
H           89.3        22.54       20.45       
C           87.12       18.6        18.89       
C           87.85       20.84       19.11       
C           86.8        19.96       18.86       
C           102.56      12.59       21.27       
S           100.95      11.92       21.14       
C           102.6       13.95       21.04       
C           101.3       14.5        20.94       
C           100.3       13.53       21.02       
N           100.75      15.75       20.82       
C           99.4        15.62       20.82       
C           99.09       14.25       21.03       
C           101.52      16.9        20.34       
H           102.28      16.67       19.57       
H           100.74      17.38       19.79       
H           101.82405   17.58774    21.12909    
H           98.28       17.55       20.77       
H           103.5       14.53       20.89       
C           98.29       16.49       20.76       
S           97.35       14.05       21.0        
C           97.12       15.79       20.85       
C           111.67      6.43        23.13       
C           111.65      7.76        23.39       
C           110.63      5.88        22.31       
C           109.58      6.69        21.93       
C           109.48      8.01        22.38       
C           110.58      8.56        23.05       
N           108.46      6.32        21.21       
C           107.5       7.32        21.17       
C           108.14      8.46        21.97       
O           106.54      7.38        20.4        
C           108.39      5.16        20.3        
C           107.45      9.65        22.1        
C           106.02      10.07       21.79       
C           105.98      11.46       22.11       
N           107.23      12.0        22.36       
C           108.13      10.97       22.47       
C           104.74      9.56        21.33       
O           109.3       11.13       22.64       
C           107.5       13.29       23.0        
H           110.6       9.51        23.46       
H           110.62      4.79        22.03       
H           112.51      8.24        23.93       
H           105.04      13.32       21.91       
H           104.73      8.54        21.02       
H           102.68      9.9         21.1        
H           109.36      4.75        20.03       
H           108.04      5.39        19.25       
H           107.66192   4.44649     20.68588    
H           108.41      13.27       23.65       
H           107.6821    14.05341    22.2436     
H           106.69      13.48       23.68       
C           103.6       10.37       21.35       
C           104.87      12.25       21.92       
C           103.66      11.73       21.49       
C           116.09      0.74        25.89       
S           114.77      0.73        24.73       
C           116.55      1.95        26.16       
C           115.77      3.02        25.52       
C           114.79      2.43        24.77       
N           115.67      4.35        25.57       
C           114.56      4.63        24.8        
C           114.02      3.5         24.27       
C           116.4       5.21        26.51       
H           115.96      6.18        26.6        
H           116.41      4.76        27.54       
H           117.43604   5.315       26.18799    
H           114.14      6.79        24.71       
H           117.38      2.14        26.86       
C           113.78      5.81        24.51       
S           112.64      3.83        23.29       
C           112.71      5.55        23.65       
C           118.33      -9.41       30.16       
C           118.51      -8.24       30.87       
C           118.15      -9.32       28.75       
C           118.03      -8.01       28.21       
C           118.05      -6.8        28.97       
C           118.38      -6.97       30.32       
N           117.72      -7.68       26.9        
C           117.56      -6.3        26.72       
C           117.74      -5.63       28.08       
O           117.25      -5.78       25.58       
C           118.1       -8.54       25.76       
C           117.61      -4.27       28.28       
C           117.36      -3.09       27.47       
C           117.17      -1.94       28.3        
N           117.26      -2.33       29.65       
C           117.54      -3.7        29.7        
C           117.16      -2.86       26.14       
O           117.3       -4.28       30.76       
C           117.29      -1.46       30.84       
H           118.62      -6.18       30.89       
H           118.05      -10.17      28.1        
H           118.91      -8.26       31.85       
H           116.62      0.17        28.56       
H           117.28      -3.58       25.44       
H           116.63      -1.52       24.6        
H           119.1       -9.04       25.89       
H           118.18      -7.91       24.9        
H           117.3297    -9.28067    25.5452     
H           116.44      -1.68       31.45       
H           118.27051   -1.51563    31.31287    
H           117.12      -0.48       30.54       
C           116.87      -1.6        25.64       
C           116.75      -0.67       27.88       
C           116.59      -0.51       26.49       
C           119.58      -16.47      33.17       
S           119.42      -15.98      31.52       
C           119.66      -15.42      34.01       
C           119.47      -14.23      33.35       
C           119.37      -14.34      31.99       
N           119.24      -12.87      33.74       
C           119.04      -12.14      32.58       
C           119.17      -13.01      31.46       
C           118.86      -12.55      35.09       
H           118.58      -11.48      35.1        
H           119.68      -12.65      35.74       
H           117.99005   -13.1151    35.4246     
H           118.48      -10.04      32.86       
H           119.62      -15.57      35.06       
C           118.54      -10.89      32.25       
S           118.69      -12.19      30.0        
C           118.41      -10.69      30.86       
C           119.5       -27.6       34.79       
C           119.07      -26.68      35.72       
C           120.1       -27.07      33.66       
C           120.14      -25.63      33.5        
C           119.64      -24.7       34.41       
C           119.09      -25.3       35.56       
N           120.67      -24.97      32.36       
C           120.58      -23.62      32.54       
C           119.75      -23.33      33.85       
O           120.95      -22.88      31.68       
C           121.58      -25.49      31.4        
C           119.38      -22.06      34.33       
C           119.52      -20.67      33.79       
C           119.05      -19.82      34.79       
N           118.56      -20.49      35.93       
C           118.74      -21.83      35.75       
C           120.13      -20.13      32.66       
O           118.45      -22.6       36.62       
C           117.85      -19.95      37.01       
H           118.67      -24.84      36.47       
H           120.51      -27.7       32.85       
H           118.6       -27.04      36.55       
H           118.52      -17.78      35.24       
H           120.55      -20.78      31.83       
H           120.54      -18.34      31.57       
H           122.33      -26.15      31.92       
H           122.22      -24.68      30.94       
H           121.10073   -25.99788   30.56307    
H           117.46      -19.01      36.76       
H           118.45168   -19.84256   37.91252    
H           116.99      -20.6       37.23       
C           120.11      -18.77      32.47       
C           118.96      -18.44      34.58       
C           119.6       -17.91      33.45       
C           117.45      -34.82      36.37       
S           117.8       -33.5       37.44       
C           117.7       -34.63      35.07       
C           118.08      -33.26      34.88       
C           118.25      -32.56      36.07       
N           118.53      -32.49      33.83       
C           118.82      -31.25      34.41       
C           118.62      -31.23      35.81       
C           118.66      -32.93      32.48       
H           119.15      -32.18      31.86       
H           117.6       -33.16      32.08       
H           119.25209   -33.84251   32.41034    
H           119.43      -29.69      32.86       
H           117.55      -35.39      34.29       
C           119.23      -29.96      33.91       
S           119.03      -29.77      36.6        
C           119.34      -29.06      34.97       
C           115.83      -43.81      42.61       
C           115.66      -42.56      43.23       
C           116.69      -43.93      41.52       
C           117.05      -42.68      41.0        
C           116.66      -41.36      41.35       
C           116.02      -41.37      42.6        
N           117.94      -42.58      39.9        
C           118.02      -41.26      39.46       
C           117.16      -40.41      40.35       
O           118.65      -40.95      38.45       
C           118.44      -43.63      39.07       
C           116.72      -39.1       40.04       
C           117.07      -38.16      38.95       
C           116.08      -37.17      38.93       
N           115.19      -37.26      40.01       
C           115.6       -38.3       40.78       
C           118.03      -38.15      37.94       
O           114.94      -38.58      41.71       
C           113.95      -36.59      40.12       
H           115.69      -40.42      43.06       
H           117.08      -44.82      41.11       
H           115.02      -42.52      44.12       
H           115.27      -35.41      37.98       
H           118.8       -38.86      37.81       
H           118.89      -36.98      36.28       
H           119.44      -43.43      38.82       
H           118.31      -44.6       39.56       
H           117.85984   -43.64398   38.14733    
H           113.14      -37.27      40.39       
H           114.02972   -35.72034   40.77225    
H           113.6       -36.41      39.1        
C           118.08      -37.07      37.04       
C           116.04      -36.2       37.92       
C           117.15      -36.05      37.1        
C           111.63      -50.13      44.19       
S           111.72      -49.14      42.8        
C           112.35      -49.6       45.27       
C           112.98      -48.37      44.91       
C           112.82      -48.06      43.57       
N           113.87      -47.47      45.56       
C           114.23      -46.58      44.57       
C           113.65      -46.97      43.34       
C           114.18      -47.4       46.98       
H           114.61      -46.43      47.14       
H           114.94      -48.15      47.33       
H           113.27583   -47.59687   47.55604    
H           115.72      -45.1       45.18       
H           112.45      -50.08      46.27       
C           115.12      -45.47      44.45       
S           114.15      -45.86      42.06       
C           115.17      -44.98      43.18       
C           105.44      -59.53      43.34       
C           105.4       -58.74      44.42       
C           106.4       -59.29      42.33       
C           107.19      -58.18      42.47       
C           107.12      -57.23      43.58       
C           106.16      -57.59      44.52       
N           108.14      -57.73      41.6        
C           108.73      -56.56      42.02       
C           108.17      -56.15      43.41       
O           109.47      -55.89      41.28       
C           108.72      -58.58      40.55       
C           108.68      -55.07      44.16       
C           109.45      -53.82      43.85       
C           109.72      -53.21      45.06       
N           109.16      -53.94      46.09       
C           108.54      -55.07      45.69       
C           109.96      -53.1       42.71       
O           107.98      -55.89      46.45       
C           109.3       -53.66      47.51       
H           106.04      -56.87      45.29       
H           106.46      -59.96      41.5        
H           104.7       -59.03      45.24       
H           110.59      -51.54      46.11       
H           109.74      -53.42      41.69       
H           111.08      -51.46      41.97       
H           108.25      -59.5       40.37       
H           108.54      -58.06      39.56       
H           109.80081   -58.69303   40.63477    
H           108.36      -53.99      48.05       
H           110.19204   -54.12415   47.93064    
H           109.23      -52.62      47.74       
C           110.69      -51.96      42.84       
C           110.36      -51.96      45.16       
C           110.93      -51.34      44.09       
C           100.53      -65.44      42.09       
S           101.18      -64.2       40.99       
C           101.01      -65.3       43.34       
C           101.89      -64.21      43.44       
C           102.15      -63.53      42.24       
N           102.73      -63.61      44.41       
C           103.31      -62.5       43.8        
C           103.02      -62.47      42.48       
C           103.34      -64.24      45.61       
H           104.09      -63.65      46.03       
H           103.8       -65.15      45.33       
H           102.51695   -64.33304   46.31854    
H           104.38      -61.23      45.27       
H           100.81      -66.03      44.07       
C           104.07      -61.36      44.21       
S           103.95      -61.23      41.66       
C           104.58      -60.66      43.2        
H           17.31       36.65       30.53       
H           99.91       -66.27      41.74       
