512

C           29.5        25.92       18.17       
C           29.47       26.56       19.45       
C           28.3        25.41       17.6        
C           27.06       25.53       18.28       
C           26.93       26.21       19.56       
C           28.2        26.64       20.14       
N           25.82       24.98       17.95       
C           24.83       25.37       18.89       
C           25.44       26.23       19.91       
O           23.68       24.97       18.84       
C           25.36       24.56       16.61       
C           24.63       26.82       20.86       
C           23.16       26.95       21.16       
C           23.05       27.76       22.33       
N           24.28       28.2        22.8        
C           25.25       27.72       21.97       
C           21.96       26.53       20.63       
O           26.38       27.99       22.27       
C           24.63       28.76       24.08       
H           28.27       26.99       21.17       
H           28.33       24.86       16.65       
H           30.3        27.09       19.83       
H           21.83       28.75       23.91       
H           21.87       25.97       19.7        
H           19.91       26.66       20.76       
H           26.26       24.45       16.06       
H           24.85       23.55       16.69       
H           24.78409    25.33959    16.11134    
H           24.1        28.15       24.85       
H           24.33582    29.80756    24.14458    
H           25.74       28.54       24.35       
C           20.8        27.02       21.19       
C           21.84       28.15       22.95       
C           20.64       27.74       22.34       
C           36.67       26.21       15.03       
S           36.08       26.45       16.68       
C           35.68       25.83       14.12       
C           34.43       25.68       14.82       
C           34.45       26.13       16.15       
N           33.09       25.41       14.47       
C           32.35       25.67       15.6        
C           33.19       25.99       16.68       
C           32.56       25.13       13.12       
H           31.5        25.42       13.05       
H           32.72       24.15       12.89       
H           33.03155    25.73528    12.34581    
H           30.13       25.52       15.34       
H           35.82       25.65       13.08       
C           30.97       25.72       16.04       
S           32.31       25.99       18.16       
C           30.78       25.88       17.38       
C           47.64       27.27       13.34       
C           47.16       27.24       14.64       
C           46.77       27.22       12.25       
C           45.45       26.98       12.57       
C           44.89       26.86       13.87       
C           45.82       26.92       14.96       
N           44.39       27.05       11.64       
C           43.15       26.96       12.26       
C           43.39       26.71       13.74       
O           42.13       27.16       11.59       
C           44.66       26.91       10.23       
C           42.4        26.68       14.62       
C           40.9        26.61       14.46       
C           40.29       26.77       15.74       
N           41.28       26.96       16.74       
C           42.51       26.78       16.16       
C           40.05       26.3        13.39       
O           43.53       26.84       16.78       
C           41.16       27.51       18.1        
H           45.59       26.85       16.0        
H           47.09       27.28       11.16       
H           47.82       27.44       15.46       
H           38.52       27.09       16.92       
H           40.38       25.91       12.47       
H           38.07       25.69       12.95       
H           43.88       27.39       9.68        
H           45.53       27.39       9.89        
H           44.68804    25.85167    9.97067     
H           40.73       28.52       17.97       
H           40.50388    26.96446    18.77823    
H           42.12       27.73       18.51       
C           38.67       26.12       13.71       
C           38.91       26.8        15.94       
C           38.1        26.42       14.92       
C           55.22       28.92       12.76       
S           54.26       28.49       14.14       
C           54.57       28.86       11.6        
C           53.17       28.54       11.79       
C           52.83       28.33       13.12       
N           52.04       28.48       11.02       
C           50.95       28.21       11.84       
C           51.44       28.03       13.14       
C           52.0        28.6        9.51        
H           51.0        28.44       9.18        
H           52.65       27.87       9.0         
H           52.31683    29.5865     9.17157     
H           49.06       27.76       10.8        
H           54.95       29.12       10.56       
C           49.56       27.92       11.75       
S           50.24       27.64       14.28       
C           48.97       27.74       13.03       
C           66.14       31.12       13.35       
C           65.35       31.23       12.26       
C           65.56       30.64       14.53       
C           64.15       30.51       14.58       
C           63.31       30.75       13.46       
C           63.95       31.04       12.26       
N           63.41       30.03       15.61       
C           62.01       30.01       15.27       
C           61.85       30.59       13.85       
O           61.11       29.59       16.0        
C           63.82       29.89       17.05       
C           60.63       30.66       13.09       
C           59.32       30.09       13.25       
C           58.54       30.51       12.15       
N           59.27       31.26       11.26       
C           60.51       31.43       11.76       
C           58.73       29.17       14.14       
O           61.38       32.25       11.34       
C           59.07       31.51       9.86        
H           63.39       31.06       11.3        
H           66.14       30.43       15.37       
H           65.86       31.45       11.3        
H           56.55       30.59       11.28       
H           59.34       28.68       14.84       
H           56.92       28.2        14.72       
H           63.44       28.91       17.43       
H           64.91       29.72       17.06       
H           63.62677    30.80605    17.60822    
H           59.2        32.56       9.59        
H           59.70391    30.90524    9.21152     
H           58.04       31.14       9.65        
C           57.41       28.86       14.02       
C           57.17       30.17       12.06       
C           56.59       29.37       13.0        
C           73.87       31.73       13.92       
S           72.68       31.23       15.14       
C           73.3        32.21       12.77       
C           71.91       32.01       12.87       
C           71.38       31.58       14.06       
N           70.92       32.22       11.99       
C           69.72       31.87       12.67       
C           69.96       31.45       13.93       
C           71.01       32.75       10.64       
H           70.0        32.95       10.35       
H           71.49       32.12       9.9         
H           71.52032    33.71313    10.64719    
H           67.94       31.87       11.27       
H           73.81       32.48       11.85       
C           68.34       31.68       12.23       
S           68.56       31.0        14.72       
C           67.61       31.31       13.3        
C           84.21       28.06       16.32       
C           84.08       28.87       15.26       
C           83.11       27.73       17.05       
C           81.83       28.06       16.65       
C           81.66       28.92       15.56       
C           82.79       29.29       14.85       
N           80.65       27.92       17.34       
C           79.64       28.49       16.64       
C           80.24       29.29       15.5        
O           78.56       28.47       17.14       
C           80.35       26.76       18.18       
C           79.4        30.13       14.71       
C           78.0        30.61       14.78       
C           77.63       31.26       13.53       
N           78.78       31.24       12.7        
C           79.85       30.68       13.38       
C           76.99       30.51       15.7        
O           80.93       30.61       12.83       
C           78.91       31.96       11.46       
H           82.64       29.92       13.93       
H           83.19       27.12       17.93       
H           84.95       29.1        14.67       
H           76.03       31.93       12.23       
H           77.14       30.11       16.63       
H           74.92       30.88       16.28       
H           81.22       26.57       18.75       
H           79.61       26.99       18.85       
H           80.05162    25.87906    17.61165    
H           79.94       32.28       11.36       
H           78.7833     31.31948    10.5872     
H           78.22       32.8        11.44       
C           75.7        30.98       15.44       
C           76.33       31.68       13.24       
C           75.29       31.51       14.22       
C           91.6        26.8        18.04       
S           90.76       28.36       17.83       
C           90.77       25.68       18.05       
C           89.48       26.12       17.83       
C           89.31       27.49       17.61       
N           88.29       25.41       17.73       
C           87.33       26.36       17.38       
C           87.92       27.66       17.34       
C           88.08       23.91       17.84       
H           87.03       23.74       17.72       
H           88.28       23.62       18.85       
H           88.66545    23.29452    17.15697    
H           85.42       25.46       17.03       
H           91.06       24.73       18.5        
C           86.01       26.37       17.03       
S           86.77       28.91       16.95       
C           85.57       27.68       16.79       
C           101.28      26.47       23.08       
C           100.71      27.72       22.88       
C           100.88      25.4        22.28       
C           99.93       25.61       21.29       
C           99.3        26.92       21.05       
C           99.71       27.92       21.93       
N           99.43       24.72       20.45       
C           98.42       25.21       19.66       
C           98.24       26.68       20.07       
O           97.81       24.49       18.81       
C           99.9        23.33       20.22       
C           97.16       27.46       19.66       
C           95.77       26.99       19.22       
C           94.99       28.14       19.05       
N           95.69       29.29       19.36       
C           96.99       28.98       19.74       
C           95.08       25.77       19.07       
O           97.77       29.86       20.18       
C           95.08       30.59       19.63       
H           99.34       28.93       21.73       
H           101.38      24.45       22.36       
H           101.13      28.61       23.39       
H           93.13       29.09       18.34       
H           95.53       24.81       19.2        
H           93.23       24.76       18.6        
H           100.91      23.18       20.49       
H           99.88       23.14       19.15       
H           99.23304    22.64198    20.73952    
H           95.5        30.97       20.54       
H           95.33336    31.31387    18.85546    
H           94.0        30.37       19.9        
C           93.73       25.74       18.65       
C           93.66       28.12       18.54       
C           93.0        26.86       18.38       
C           106.23      23.88       28.46       
S           105.36      23.12       27.13       
C           106.07      25.24       28.42       
C           105.28      25.71       27.35       
C           104.74      24.59       26.59       
N           104.78      26.94       26.81       
C           103.99      26.53       25.75       
C           103.93      25.14       25.6        
C           105.13      28.32       27.22       
H           104.76      28.98       26.35       
H           104.49      28.63       28.05       
H           106.20938   28.40752    27.34398    
H           102.78      28.24       24.85       
H           106.59      25.96       29.15       
C           103.02      27.19       24.86       
S           102.87      24.7        24.32       
C           102.33      26.34       24.08       
C           110.13      17.57       36.79       
C           110.52      18.92       36.63       
C           109.27      17.09       35.84       
C           108.88      17.85       34.76       
C           109.24      19.19       34.57       
C           110.04      19.69       35.62       
N           108.01      17.35       33.81       
C           107.76      18.36       32.84       
C           108.6       19.54       33.27       
O           106.99      18.05       31.96       
C           107.2       16.18       34.04       
C           108.69      20.74       32.63       
C           107.81      21.38       31.61       
C           108.34      22.65       31.35       
N           109.48      22.89       32.07       
C           109.8       21.8        32.86       
C           106.62      21.06       30.97       
O           110.71      21.81       33.69       
C           110.46      23.98       31.88       
H           110.21      20.76       35.67       
H           108.97      16.0        35.91       
H           111.26      19.43       37.35       
H           108.27      24.42       30.23       
H           105.98      20.29       31.36       
H           105.23      21.61       29.31       
H           106.16      16.51       33.97       
H           107.25      15.79       34.99       
H           107.48428   15.40734    33.32566    
H           110.53      24.49       30.9        
H           110.20421   24.83486    32.506      
H           111.42      23.58       32.21       
C           106.17      21.85       29.89       
C           107.86      23.47       30.36       
C           106.77      23.06       29.52       
C           112.59      12.04       41.85       
S           111.39      11.94       40.55       
C           112.89      13.32       42.13       
C           112.29      14.27       41.3        
C           111.49      13.69       40.32       
N           112.43      15.66       41.07       
C           111.68      15.88       39.93       
C           111.09      14.72       39.53       
C           113.15      16.62       41.84       
H           112.43      17.24       42.25       
H           113.67      16.29       42.69       
H           113.78643   17.26374    41.23283    
H           111.81      18.02       39.24       
H           113.68      13.52       42.76       
C           111.43      17.01       39.05       
S           110.2       15.05       38.02       
C           110.62      16.78       37.95       
C           117.45      2.43        45.25       
C           117.62      3.69        45.88       
C           116.61      2.51        44.08       
C           116.19      3.76        43.55       
C           116.46      4.96        44.22       
C           117.15      4.89        45.41       
N           115.36      3.93        42.53       
C           115.02      5.19        42.36       
C           115.79      5.99        43.41       
O           114.39      5.58        41.45       
C           114.94      2.89        41.56       
C           115.64      7.38        43.63       
C           114.66      8.41        43.09       
C           115.0       9.72        43.61       
N           116.05      9.57        44.5        
C           116.53      8.24        44.49       
C           113.63      8.38        42.1        
O           117.48      7.96        45.17       
C           116.55      10.6        45.45       
H           117.25      5.79        46.04       
H           116.34      1.61        43.54       
H           118.32      3.76        46.68       
H           114.53      11.85       43.83       
H           113.41      7.47        41.59       
H           112.22      9.46        41.04       
H           115.78      2.27        41.38       
H           114.6       3.24        40.57       
H           114.11863   2.34944     42.03036    
H           116.42      10.31       46.47       
H           117.51582   11.0308     45.18596    
H           115.77      11.37       45.38       
C           113.0       9.6         41.75       
C           114.33      10.93       43.22       
C           113.28      10.85       42.31       
C           120.08      -4.69       46.98       
S           118.98      -4.11       45.72       
C           120.25      -3.71       47.95       
C           119.66      -2.47       47.58       
C           119.03      -2.48       46.36       
N           119.57      -1.12       48.12       
C           118.93      -0.37       47.14       
C           118.66      -1.19       46.02       
C           120.39      -0.46       49.11       
H           119.71      0.39        49.37       
H           121.22      0.03        48.7        
H           120.67359   -1.06972    49.96786    
H           118.63      1.81        47.64       
H           120.91      -3.85       48.78       
C           118.56      1.0         46.91       
S           118.02      -0.28       44.66       
C           118.05      1.19        45.67       
C           121.55      -15.36      47.14       
C           121.71      -14.63      48.32       
C           121.72      -14.69      45.93       
C           122.08      -13.35      45.98       
C           122.12      -12.54      47.17       
C           121.86      -13.25      48.34       
N           122.19      -12.52      44.87       
C           122.31      -11.22      45.21       
C           122.29      -11.14      46.72       
O           122.45      -10.31      44.42       
C           122.47      -12.97      43.48       
C           122.23      -9.97       47.42       
C           121.78      -8.6        47.1        
C           121.71      -7.83       48.26       
N           122.32      -8.47       49.3        
C           122.6       -9.76       48.84       
C           121.02      -8.13       45.96       
O           122.96      -10.64      49.62       
C           122.06      -8.19       50.74       
H           121.87      -12.75      49.32       
H           121.39      -15.24      45.03       
H           121.65      -15.09      49.32       
H           121.41      -5.97       49.11       
H           120.73      -8.78       45.17       
H           119.96      -6.52       45.06       
H           123.08      -13.83      43.58       
H           123.05      -12.29      42.87       
H           121.60106   -13.29497   42.90777    
H           121.08      -7.66       50.85       
H           122.82419   -7.62959    51.27857    
H           121.89      -9.17       51.18       
C           120.46      -6.83       45.94       
C           121.25      -6.54       48.18       
C           120.58      -6.04       47.06       
C           119.14      -22.68      48.61       
S           119.11      -21.25      49.64       
C           119.83      -22.46      47.45       
C           120.27      -21.1       47.31       
C           119.81      -20.29      48.39       
N           120.88      -20.3       46.28       
C           120.86      -19.02      46.77       
C           120.29      -18.98      48.05       
C           121.08      -20.65      44.93       
H           121.78      -19.91      44.57       
H           120.18      -20.63      44.27       
H           121.62468   -21.58768   44.81968    
H           121.85      -17.7       45.38       
H           120.04      -23.27      46.75       
C           121.32      -17.79      46.36       
S           120.39      -17.39      48.72       
C           121.13      -16.79      47.27       
C           112.13      -31.14      51.11       
C           112.33      -30.08      51.95       
C           113.0       -31.23      50.01       
C           114.03      -30.28      49.84       
C           114.31      -29.26      50.72       
C           113.35      -29.18      51.8        
N           115.0       -30.23      48.8        
C           115.79      -29.08      48.89       
C           115.39      -28.36      50.16       
O           116.74      -29.0       48.12       
C           115.07      -31.1       47.64       
C           116.03      -27.13      50.53       
C           116.84      -26.2       49.81       
C           117.26      -25.18      50.76       
N           116.8       -25.53      52.04       
C           116.1       -26.73      52.03       
C           117.4       -26.08      48.49       
O           115.61      -27.3       53.0        
C           116.83      -24.58      53.16       
H           113.41      -28.38      52.48       
H           112.93      -32.02      49.35       
H           111.62      -29.93      52.77       
H           118.25      -23.33      51.11       
H           117.15      -26.78      47.75       
H           118.51      -24.8       47.12       
H           116.11      -31.39      47.36       
H           114.48      -31.98      47.88       
H           114.46672   -30.70255   46.8238     
H           117.83      -24.23      53.3        
H           116.23908   -23.6792    52.99425    
H           116.56      -25.15      54.07       
C           118.18      -24.94      48.16       
C           117.99      -24.03      50.33       
C           118.47      -23.94      49.04       
C           106.91      -36.73      52.74       
S           108.12      -36.64      51.42       
C           106.99      -35.57      53.5        
C           107.98      -34.66      53.03       
C           108.69      -35.07      51.96       
N           108.37      -33.41      53.43       
C           109.41      -33.05      52.59       
C           109.56      -33.98      51.61       
C           107.92      -32.76      54.65       
H           108.62      -32.02      54.85       
H           108.02      -33.45      55.6        
H           106.87386   -32.46822   54.55748    
H           110.21      -31.19      53.19       
H           106.41      -35.48      54.45       
C           110.31      -31.99      52.55       
S           110.93      -33.57      50.56       
C           111.13      -32.12      51.52       
C           101.73      -46.2       51.83       
C           102.49      -45.98      52.93       
C           101.29      -45.18      51.04       
C           101.69      -43.92      51.31       
C           102.46      -43.6       52.44       
C           102.87      -44.67      53.23       
N           101.28      -42.79      50.58       
C           101.95      -41.7       51.13       
C           102.82      -42.19      52.38       
O           101.75      -40.53      50.84       
C           100.69      -42.79      49.28       
C           103.57      -41.35      53.16       
C           104.3       -40.09      52.88       
C           105.09      -39.69      53.99       
N           104.8       -40.57      55.05       
C           104.02      -41.65      54.65       
C           104.35      -39.22      51.77       
O           103.57      -42.46      55.42       
C           105.09      -40.4       56.44       
H           103.45      -44.42      54.08       
H           100.68      -45.41      50.17       
H           102.76      -46.8       53.54       
H           106.42      -38.29      54.81       
H           103.83      -39.55      50.87       
H           105.24      -37.51      50.76       
H           100.0       -43.65      49.1        
H           100.06      -41.94      49.1        
H           101.45      -42.7971    48.49869    
H           104.73      -41.17      57.13       
H           106.13193   -40.27061   56.73283    
H           104.47      -39.51      56.68       
C           105.2       -38.13      51.62       
C           105.87      -38.6       53.95       
C           106.01      -37.9       52.74       
C           97.94       -52.86      50.37       
S           98.28       -51.46      49.39       
C           98.6        -52.78      51.62       
C           99.47       -51.62      51.64       
C           99.3        -50.77      50.58       
N           100.36      -51.05      52.55       
C           100.66      -49.8       52.02       
C           100.13      -49.64      50.79       
C           101.13      -51.55      53.68       
H           101.83      -50.86      54.04       
H           101.68      -52.45      53.43       
H           100.39321   -51.74314   54.45971    
H           101.93      -48.65      53.41       
H           98.57       -53.47      52.39       
C           101.48      -48.68      52.45       
S           100.47      -48.1       50.15       
C           101.29      -47.61      51.59       
H           19.77       28.4        22.48       
H           97.71       -53.84      49.93       
