512

C           29.24       34.67       14.41       
C           28.77       34.41       15.72       
C           28.25       35.15       13.5        
C           26.95       35.34       13.82       
C           26.45       35.06       15.16       
C           27.41       34.57       16.06       
N           25.91       35.68       13.01       
C           24.75       35.92       13.78       
C           25.05       35.57       15.26       
O           23.66       36.14       13.33       
C           25.91       35.78       11.54       
C           24.11       35.65       16.3        
C           22.79       36.31       16.4        
C           22.29       36.14       17.75       
N           23.19       35.31       18.45       
C           24.3        35.04       17.69       
C           21.88       37.01       15.63       
O           25.27       34.48       18.2        
C           22.92       34.56       19.67       
H           27.2        34.47       17.12       
H           28.59       35.29       12.48       
H           29.4        34.01       16.55       
H           20.98       36.65       19.38       
H           22.05       37.18       14.59       
H           20.07       38.28       15.53       
H           26.96       35.7        11.31       
H           25.47       34.85       11.15       
H           25.47324    36.67464    11.0962     
H           21.86       34.47       19.79       
H           23.33023    35.04803    20.55411    
H           23.33       33.61       19.54       
C           20.72       37.65       16.15       
C           21.19       36.8        18.32       
C           20.37       37.55       17.53       
C           36.78       32.73       13.06       
S           35.67       32.57       14.47       
C           36.07       33.38       12.03       
C           34.71       33.73       12.34       
C           34.35       33.32       13.65       
N           33.58       34.18       11.71       
C           32.55       34.15       12.67       
C           33.03       33.64       13.82       
C           33.53       34.71       10.32       
H           32.59       35.39       10.26       
H           33.41       33.91       9.54        
H           34.37375    35.38201    10.1632     
H           30.75       35.35       12.01       
H           36.4        33.39       10.96       
C           31.19       34.63       12.73       
S           31.78       33.51       15.04       
C           30.61       34.35       13.99       
C           47.86       31.27       13.13       
C           47.09       31.23       14.28       
C           47.27       31.58       11.93       
C           45.84       31.63       11.89       
C           45.0        31.47       13.02       
C           45.69       31.36       14.23       
N           45.04       31.78       10.73       
C           43.7        31.73       11.0        
C           43.58       31.57       12.55       
O           42.82       31.8        10.2        
C           45.51       31.73       9.39        
C           42.38       31.37       13.22       
C           40.93       31.84       13.03       
C           40.1        31.36       13.99       
N           40.8        30.54       14.85       
C           42.19       30.5        14.47       
C           40.3        32.47       11.97       
O           43.04       29.8        15.03       
C           40.3        29.55       15.83       
H           45.23       31.2        15.21       
H           47.9        31.74       11.09       
H           47.65       31.22       15.21       
H           38.18       31.19       14.81       
H           40.94       32.88       11.19       
H           38.55       33.28       11.09       
H           46.53       31.57       9.32        
H           44.98       30.92       8.78        
H           45.22994    32.64719    8.87189     
H           40.9        28.65       15.74       
H           40.19086    29.99384    16.81954    
H           39.36       29.13       15.47       
C           38.99       32.76       11.96       
C           38.77       31.6        14.03       
C           38.19       32.34       13.0        
C           55.47       30.14       13.95       
S           54.26       30.44       15.17       
C           54.91       29.94       12.68       
C           53.58       30.33       12.67       
C           53.05       30.66       13.93       
N           52.54       30.27       11.71       
C           51.43       30.63       12.4        
C           51.68       30.88       13.76       
C           52.58       29.47       10.52       
H           51.67       29.72       10.02       
H           52.34       28.47       10.68       
H           53.43415    29.75472    9.90561     
H           49.59       30.58       11.1        
H           55.46       29.62       11.87       
C           50.06       30.79       12.05       
S           50.22       31.28       14.63       
C           49.31       31.08       13.15       
C           66.01       28.86       17.01       
C           65.75       29.16       15.72       
C           65.01       28.64       17.95       
C           63.71       28.7        17.44       
C           63.33       28.99       16.07       
C           64.47       29.24       15.26       
N           62.55       28.37       18.19       
C           61.41       28.63       17.44       
C           61.87       28.96       16.01       
O           60.37       28.28       17.87       
C           62.57       28.04       19.59       
C           60.95       29.09       14.97       
C           59.52       29.41       15.04       
C           59.01       29.26       13.71       
N           60.09       28.85       12.93       
C           61.34       28.79       13.54       
C           58.67       29.9        15.99       
O           62.43       28.6        12.95       
C           60.02       28.48       11.53       
H           64.41       29.41       14.17       
H           65.3        28.32       18.97       
H           66.53       29.22       14.99       
H           57.45       29.41       12.29       
H           58.97       30.11       17.06       
H           56.72       30.58       16.34       
H           61.86       27.3        19.84       
H           63.62       27.62       19.82       
H           62.33097    28.90194    20.21292    
H           60.43       29.21       10.9        
H           60.38374    27.4815     11.28751    
H           58.97       28.33       11.36       
C           57.32       30.12       15.59       
C           57.7        29.53       13.36       
C           56.86       29.94       14.33       
C           72.99       27.56       20.44       
S           71.33       27.4        20.99       
C           72.99       28.18       19.19       
C           71.69       28.24       18.6        
C           70.7        28.0        19.53       
N           71.16       28.74       17.37       
C           69.74       28.61       17.51       
C           69.48       28.21       18.83       
C           71.96       29.4        16.3        
H           71.33       29.47       15.38       
H           72.75       28.77       15.95       
H           72.35192    30.3798     16.57294    
H           68.62       29.3        15.74       
H           73.88       28.42       18.73       
C           68.65       28.95       16.74       
S           67.75       28.16       19.09       
C           67.47       28.76       17.44       
C           81.03       23.27       26.51       
C           81.2        23.84       25.27       
C           79.76       23.42       27.09       
C           78.74       24.11       26.39       
C           78.99       24.72       25.16       
C           80.27       24.57       24.63       
N           77.4        24.29       26.78       
C           76.71       24.98       25.83       
C           77.7        25.36       24.79       
O           75.53       25.4        26.07       
C           76.63       23.53       27.73       
C           77.37       26.12       23.7        
C           76.05       26.31       23.08       
C           76.31       27.21       22.02       
N           77.63       27.61       21.91       
C           78.37       26.98       22.85       
C           74.78       25.83       23.19       
O           79.55       27.31       23.02       
C           78.14       28.31       20.77       
H           80.49       25.08       23.72       
H           79.55       23.09       28.14       
H           82.2        23.82       24.8        
H           75.54       28.42       20.43       
H           74.52       25.1        23.88       
H           72.68       25.85       22.46       
H           77.38       23.09       28.48       
H           76.06       24.11       28.43       
H           76.12359    22.69549    27.24499    
H           77.46       28.2        19.92       
H           78.35795    29.36458    20.93873    
H           79.0        27.8        20.4        
C           73.69       26.33       22.41       
C           75.36       27.68       21.21       
C           74.03       27.17       21.38       
C           87.42       20.2        29.41       
S           87.11       21.78       28.73       
C           86.32       19.43       29.4        
C           85.2        20.09       28.85       
C           85.47       21.39       28.45       
N           83.9        19.83       28.61       
C           83.33       20.97       28.12       
C           84.3        21.89       27.95       
C           83.25       18.51       28.54       
H           82.49       18.63       27.7        
H           82.71       18.22       29.46       
H           83.92398    17.74379    28.15689    
H           80.98       20.9        27.84       
H           86.38       18.35       29.74       
C           81.97       21.4        27.77       
S           83.63       23.38       27.31       
C           82.06       22.69       27.31       
C           97.1        17.83       34.59       
C           96.71       19.17       34.59       
C           96.45       16.86       33.8        
C           95.4        17.25       33.03       
C           94.92       18.57       32.89       
C           95.62       19.53       33.74       
N           94.66       16.38       32.23       
C           93.59       17.01       31.62       
C           93.68       18.47       31.99       
O           92.92       16.5        30.8        
C           95.03       14.99       31.97       
C           92.8        19.39       31.54       
C           91.44       19.29       30.84       
C           90.87       20.57       30.76       
N           91.75       21.5        31.36       
C           92.88       20.87       31.8        
C           90.62       18.3        30.24       
O           93.8        21.49       32.25       
C           91.6        22.96       31.42       
H           95.3        20.57       33.76       
H           96.83       15.84       33.85       
H           97.21       19.93       35.12       
H           89.27       21.91       30.23       
H           90.95       17.28       30.27       
H           88.74       17.68       29.51       
H           96.03       14.7        32.24       
H           94.87       14.72       30.88       
H           94.30226    14.30424    32.40385    
H           92.05       23.3        32.27       
H           91.96474    23.52815    30.56427    
H           90.54       23.13       31.67       
C           89.31       18.55       29.82       
C           89.67       20.9        30.15       
C           88.78       19.8        29.84       
C           102.45      14.58       39.29       
S           101.87      14.01       37.68       
C           102.13      15.91       39.55       
C           101.2       16.4        38.59       
C           100.92      15.53       37.53       
N           100.48      17.58       38.45       
C           99.68       17.41       37.28       
C           99.98       16.16       36.72       
C           100.68      18.86       39.17       
H           101.72      18.94       39.45       
H           100.48      19.72       38.52       
H           99.99488    18.91593    40.01592    
H           98.37       19.14       36.73       
H           102.48      16.48       40.39       
C           98.72       18.13       36.55       
S           98.94       15.9        35.38       
C           98.29       17.48       35.42       
C           109.99      8.01        44.87       
C           110.07      9.38        44.98       
C           108.81      7.57        44.23       
C           107.86      8.39        43.57       
C           108.03      9.8         43.59       
C           109.08      10.21       44.39       
N           106.82      7.98        42.78       
C           106.09      9.07        42.42       
C           106.86      10.33       42.8        
O           105.03      8.98        41.74       
C           106.6       6.62        42.21       
C           106.36      11.58       42.5        
C           105.34      12.11       41.53       
C           105.08      13.5        41.87       
N           105.89      13.83       42.94       
C           106.74      12.82       43.35       
C           104.63      11.67       40.39       
O           107.56      12.91       44.23       
C           105.63      15.01       43.75       
H           109.14      11.26       44.58       
H           108.58      6.47        44.19       
H           110.89      9.83        45.52       
H           104.05      15.29       41.37       
H           104.73      10.66       40.01       
H           103.07      11.93       38.91       
H           105.57      6.33        42.16       
H           107.04      5.91        42.81       
H           107.03856   6.55039     41.21455    
H           106.15      14.93       44.74       
H           106.06226   15.91569    43.3246     
H           104.47      15.08       43.82       
C           103.71      12.48       39.7        
C           104.14      14.26       41.11       
C           103.42      13.77       40.06       
C           115.26      2.22        45.8        
S           113.54      2.14        45.54       
C           115.71      3.49        46.13       
C           114.64      4.42        46.12       
C           113.41      3.91        45.77       
N           114.5       5.86        46.18       
C           113.19      6.13        45.75       
C           112.47      4.96        45.66       
C           115.36      6.87        46.84       
H           114.66      7.63        47.14       
H           116.03      6.46        47.64       
H           116.00223   7.236       46.03894    
H           112.81      8.33        45.36       
H           116.71      3.72        46.34       
C           112.42      7.33        45.46       
S           110.76      5.34        45.31       
C           111.06      7.02        45.21       
C           120.82      -7.69       46.28       
C           121.3       -6.61       46.91       
C           119.85      -7.54       45.3        
C           119.24      -6.3        45.22       
C           119.61      -5.14       45.95       
C           120.77      -5.37       46.75       
N           118.25      -5.9        44.34       
C           117.96      -4.56       44.46       
C           118.8       -3.97       45.6        
O           117.1       -4.02       43.79       
C           117.8       -6.69       43.17       
C           118.54      -2.67       46.08       
C           117.64      -1.53       45.78       
C           117.91      -0.44       46.64       
N           118.9       -0.81       47.53       
C           119.21      -2.13       47.36       
C           116.53      -1.29       44.98       
O           120.0       -2.66       48.12       
C           119.5       0.11        48.45       
H           121.13      -4.53       47.3        
H           119.41      -8.38       44.81       
H           122.19      -6.69       47.59       
H           117.37      1.53        47.42       
H           116.18      -2.05       44.3        
H           114.98      -0.03       44.4        
H           118.61      -7.12       42.65       
H           117.38      -6.02       42.46       
H           117.00199   -7.4148     43.33107    
H           119.65      -0.29       49.47       
H           120.45853   0.5208      48.13289    
H           118.87      0.9         48.58       
C           115.85      -0.05       45.03       
C           117.21      0.8         46.67       
C           116.09      0.99        45.86       
C           122.62      -15.17      47.52       
S           121.98      -14.4       46.03       
C           122.95      -14.26      48.48       
C           122.65      -12.88      48.08       
C           122.11      -12.85      46.78       
N           122.77      -11.64      48.67       
C           122.26      -10.8       47.74       
C           121.8       -11.48      46.6        
C           123.46      -11.23      49.88       
H           122.9       -10.44      50.33       
H           124.35      -10.67      49.65       
H           123.5038    -11.99647   50.65377    
H           122.22      -8.62       48.54       
H           123.41      -14.52      49.44       
C           122.05      -9.39       47.69       
S           121.0       -10.33      45.52       
C           121.36      -8.98       46.57       
C           122.78      -26.07      49.35       
C           123.46      -25.21      50.22       
C           122.63      -25.61      48.05       
C           122.91      -24.22      47.8        
C           123.48      -23.35      48.74       
C           123.84      -23.92      49.97       
N           122.77      -23.64      46.54       
C           123.14      -22.29      46.67       
C           123.5       -21.99      48.12       
O           123.03      -21.45      45.78       
C           121.82      -24.01      45.51       
C           123.77      -20.68      48.52       
C           123.33      -19.33      48.02       
C           124.02      -18.36      48.77       
N           124.86      -18.98      49.68       
C           124.69      -20.37      49.67       
C           122.24      -18.85      47.17       
O           125.28      -21.01      50.53       
C           126.18      -18.43      50.15       
H           124.24      -23.26      50.7        
H           122.2       -26.21      47.23       
H           123.68      -25.55      51.25       
H           124.41      -16.27      48.92       
H           121.52      -19.51      46.74       
H           121.18      -17.12      46.35       
H           121.55      -25.08      45.59       
H           122.28      -23.86      44.54       
H           120.91782   -23.40155   45.57294    
H           126.06      -17.75      50.9        
H           126.70949   -17.91444   49.34879    
H           126.68      -19.31      50.63       
C           122.01      -17.49      46.97       
C           123.87      -17.03      48.47       
C           122.86      -16.58      47.56       
C           119.05      -31.95      52.98       
S           120.46      -31.0       53.43       
C           118.63      -31.55      51.78       
C           119.57      -30.62      51.16       
C           120.57      -30.19      51.98       
N           119.72      -30.12      49.85       
C           120.7       -29.16      49.96       
C           121.23      -29.2       51.29       
C           118.78      -30.14      48.77       
H           119.12      -29.46      48.0        
H           117.88      -29.6       49.08       
H           118.62356   -31.14664   48.38231    
H           120.98      -27.69      48.17       
H           117.75      -32.07      51.3        
C           121.29      -28.06      49.11       
S           122.58      -28.07      51.39       
C           122.18      -27.35      49.83       
C           113.79      -38.89      60.04       
C           114.88      -38.1       60.47       
C           113.44      -38.74      58.71       
C           114.17      -37.89      57.83       
C           115.3       -37.12      58.22       
C           115.62      -37.27      59.58       
N           113.96      -37.65      56.5        
C           114.95      -36.9       55.95       
C           115.82      -36.36      57.08       
O           114.84      -36.66      54.76       
C           112.74      -37.93      55.76       
C           116.79      -35.39      56.92       
C           117.23      -34.67      55.76       
C           118.02      -33.56      56.18       
N           118.23      -33.59      57.55       
C           117.49      -34.68      58.0        
C           117.06      -34.85      54.38       
O           117.61      -35.01      59.15       
C           119.29      -32.98      58.35       
H           116.44      -36.73      60.06       
H           112.57      -39.26      58.32       
H           115.17      -38.06      61.51       
H           119.16      -31.8       55.66       
H           116.66      -35.68      53.92       
H           117.5       -34.14      52.41       
H           112.95      -38.3       54.79       
H           112.22      -38.77      56.29       
H           112.07984   -37.07109   55.88067    
H           120.19      -32.83      57.77       
H           118.95129   -32.03442   58.77339    
H           119.58      -33.76      59.04       
C           117.61      -33.93      53.46       
C           118.61      -32.64      55.27       
C           118.36      -32.82      53.88       
C           109.18      -44.07      63.56       
S           109.41      -43.67      61.93       
C           109.96      -43.31      64.38       
C           110.72      -42.35      63.7        
C           110.53      -42.4       62.33       
N           111.7       -41.41      63.92       
C           112.14      -40.92      62.71       
C           111.33      -41.47      61.66       
C           112.32      -41.16      65.12       
H           112.82      -40.21      64.94       
H           113.08      -41.92      65.38       
H           111.62928   -41.05094   65.95613    
H           113.83      -39.36      62.8        
H           110.03      -43.48      65.45       
C           113.07      -39.96      62.23       
S           111.76      -40.85      60.11       
C           113.01      -39.86      60.9        
C           103.55      -53.35      66.33       
C           104.48      -52.73      67.17       
C           103.46      -52.83      65.05       
C           104.13      -51.73      64.62       
C           104.87      -50.98      65.57       
C           105.05      -51.47      66.83       
N           104.16      -51.14      63.35       
C           104.97      -50.08      63.35       
C           105.28      -49.74      64.81       
O           105.2       -49.49      62.26       
C           103.63      -51.75      62.16       
C           105.89      -48.56      65.16       
C           106.74      -47.56      64.49       
C           107.02      -46.5       65.41       
N           106.56      -46.85      66.68       
C           105.9       -48.04      66.6        
C           107.32      -47.44      63.26       
O           105.37      -48.58      67.57       
C           107.05      -46.28      67.93       
H           105.65      -50.91      67.56       
H           102.78      -53.3       64.37       
H           104.75      -53.13      68.12       
H           107.9       -44.6       65.9        
H           106.93      -48.04      62.49       
H           108.55      -46.22      61.92       
H           102.83      -52.34      62.42       
H           103.22      -51.04      61.46       
H           104.39504   -52.29545   61.60747    
H           106.53      -46.74      68.77       
H           108.06952   -46.49389   68.25083    
H           106.96      -45.19      67.9        
C           108.18      -46.3       62.95       
C           107.64      -45.29      65.16       
C           108.33      -45.23      63.91       
C           99.48       -59.77      68.45       
S           98.99       -58.4       67.5        
C           100.78      -59.62      68.76       
C           101.4       -58.41      68.3        
C           100.59      -57.67      67.5        
N           102.59      -57.86      68.51       
C           102.57      -56.71      67.7        
C           101.37      -56.55      67.12       
C           103.74      -58.39      69.23       
H           104.49      -57.59      69.23       
H           104.16      -59.25      68.59       
H           103.52362   -58.66222   70.26304    
H           104.54      -55.53      67.87       
H           101.23      -60.36      69.42       
C           103.51      -55.61      67.48       
S           101.31      -55.07      66.21       
C           102.93      -54.65      66.69       
H           19.31       37.57       17.79       
H           98.79       -60.5       68.8        
