512

C           30.69       40.06       12.57       
C           30.46       39.22       13.69       
C           29.6        40.52       11.94       
C           28.33       39.99       12.25       
C           28.1        39.14       13.41       
C           29.26       38.76       14.18       
N           27.18       40.19       11.55       
C           26.11       39.55       12.13       
C           26.61       38.72       13.33       
O           24.95       39.69       11.85       
C           27.24       40.7        10.18       
C           25.77       37.96       14.13       
C           24.54       37.18       13.83       
C           24.29       36.27       14.89       
N           25.31       36.41       15.81       
C           26.18       37.44       15.49       
C           23.7        36.99       12.7        
O           27.16       37.7        16.21       
C           25.3        35.84       17.16       
H           29.18       37.97       14.91       
H           29.74       41.26       11.14       
H           31.34       38.91       14.23       
H           23.32       34.45       15.65       
H           23.82       37.61       11.82       
H           21.99       36.09       11.87       
H           27.57       41.71       10.21       
H           28.13       40.17       9.75        
H           26.35356    40.58227    9.55673     
H           25.38       34.74       17.15       
H           24.50707    36.17159    17.83038    
H           26.26       36.04       17.62       
C           22.65       36.11       12.7        
C           23.31       35.28       14.86       
C           22.44       35.25       13.77       
C           38.1        41.06       10.71       
S           37.36       40.49       12.21       
C           37.18       41.65       9.95        
C           35.87       41.48       10.35       
C           35.78       40.83       11.58       
N           34.62       41.66       9.87        
C           33.73       41.1        10.74       
C           34.43       40.69       11.85       
C           34.31       42.01       8.48        
H           33.32       41.96       8.15        
H           34.88       41.35       7.86        
H           34.75842    42.98392    8.28381     
H           31.66       41.06       10.1        
H           37.5        42.19       9.09        
C           32.36       40.9        10.81       
S           33.36       40.11       13.05       
C           31.96       40.54       12.09       
C           49.27       39.9        10.42       
C           48.38       39.12       11.13       
C           48.74       40.77       9.41        
C           47.34       40.99       9.38        
C           46.46       40.34       10.26       
C           47.05       39.38       11.12       
N           46.58       41.84       8.47        
C           45.24       41.73       8.82        
C           45.08       40.77       10.01       
O           44.33       42.37       8.29        
C           47.14       42.73       7.49        
C           43.88       40.61       10.64       
C           42.45       40.91       10.38       
C           41.73       40.37       11.43       
N           42.56       40.08       12.48       
C           43.89       40.08       12.05       
C           41.66       41.45       9.36        
O           44.81       39.74       12.8        
C           42.19       40.0        13.92       
H           46.45       38.7        11.68       
H           49.39       41.32       8.74        
H           48.75       38.33       11.77       
H           39.9        40.04       12.48       
H           42.16       41.86       8.49        
H           39.66       41.91       8.6         
H           48.11       42.4        7.06        
H           46.38       42.74       6.65        
H           47.37783    43.68833    7.95168     
H           41.48       40.83       14.22       
H           41.78366    39.02618    14.19323    
H           43.04       40.25       14.53       
C           40.27       41.51       9.45        
C           40.39       40.43       11.54       
C           39.58       41.01       10.54       
C           56.22       36.4        11.42       
S           54.58       36.14       12.07       
C           56.21       37.41       10.45       
C           54.93       38.08       10.35       
C           53.97       37.52       11.21       
N           54.3        39.14       9.69        
C           52.97       39.17       10.05       
C           52.8        38.18       10.98       
C           54.85       39.94       8.55        
H           54.28       40.89       8.53        
H           54.7        39.42       7.61        
H           55.891      40.20887    8.72925     
H           51.78       40.77       9.03        
H           56.98       37.55       9.77        
C           51.78       39.93       9.71        
S           51.17       38.17       11.48       
C           50.72       39.49       10.44       
C           65.49       32.31       15.76       
C           65.45       32.95       14.47       
C           64.25       31.97       16.43       
C           63.04       32.24       15.71       
C           63.03       32.84       14.43       
C           64.27       33.13       13.83       
N           61.72       32.05       16.11       
C           60.8        32.47       15.2        
C           61.62       33.08       14.04       
O           59.62       32.25       15.23       
C           61.26       31.74       17.47       
C           60.97       33.73       12.92       
C           59.65       34.21       12.71       
C           59.57       34.77       11.39       
N           60.73       34.62       10.7        
C           61.64       34.06       11.6        
C           58.5        34.37       13.49       
O           62.79       33.74       11.27       
C           61.24       35.56       9.74        
H           64.26       33.66       12.96       
H           64.22       31.58       17.42       
H           66.32       33.28       14.01       
H           58.44       35.88       10.01       
H           58.48       34.04       14.48       
H           56.57       35.02       13.63       
H           60.65       30.84       17.27       
H           62.08       31.36       18.07       
H           60.76139    32.58763    17.94012    
H           62.24       35.92       10.1        
H           61.35201    35.16095    8.73188     
H           60.58       36.44       9.76        
C           57.4        34.94       12.98       
C           58.49       35.45       10.95       
C           57.32       35.58       11.78       
C           72.19       30.69       19.72       
S           70.62       31.1        20.3        
C           72.18       30.74       18.35       
C           70.96       31.15       17.76       
C           69.94       31.4        18.71       
N           70.44       31.51       16.5        
C           69.09       31.67       16.56       
C           68.75       31.67       17.92       
C           71.2        31.42       15.26       
H           70.69       31.94       14.48       
H           71.19       30.41       14.9        
H           72.2376     31.74511    15.33609    
H           68.03       31.86       14.69       
H           73.12       30.46       17.76       
C           67.99       31.86       15.7        
S           66.97       31.76       18.11       
C           66.78       32.02       16.36       
C           80.33       26.25       26.28       
C           80.71       26.9        25.13       
C           79.0        26.22       26.63       
C           78.15       27.06       25.97       
C           78.45       27.78       24.78       
C           79.8        27.65       24.37       
N           76.82       27.28       26.35       
C           76.13       27.99       25.33       
C           77.17       28.42       24.31       
O           74.99       28.4        25.43       
C           76.1        26.79       27.51       
C           76.69       29.08       23.13       
C           75.38       29.41       22.49       
C           75.66       29.88       21.15       
N           77.02       29.99       20.9        
C           77.66       29.55       22.04       
C           73.97       29.37       22.8        
O           78.88       29.58       22.01       
C           77.73       30.62       19.79       
H           80.2        28.13       23.47       
H           78.63       25.73       27.55       
H           81.79       26.85       24.77       
H           74.99       30.37       19.26       
H           73.77       29.09       23.78       
H           71.99       29.87       22.35       
H           76.74       26.58       28.44       
H           75.51       27.57       27.97       
H           75.35519    26.02371    27.29515    
H           77.27       30.29       18.82       
H           77.68673    31.70905    19.77558    
H           78.74       30.25       19.75       
C           73.02       29.81       21.93       
C           74.64       30.19       20.27       
C           73.29       30.23       20.67       
C           86.09       21.98       29.24       
S           86.14       23.33       28.16       
C           84.77       21.69       29.63       
C           83.87       22.57       29.04       
C           84.44       23.56       28.24       
N           82.49       22.75       29.11       
C           82.23       23.8        28.34       
C           83.4        24.29       27.71       
C           81.46       21.8        29.69       
H           80.56       22.02       29.13       
H           81.32       21.91       30.73       
H           81.68074    20.7604     29.4479     
H           80.07       24.03       28.05       
H           84.59       20.9        30.35       
C           81.05       24.34       27.78       
S           83.01       25.64       26.72       
C           81.3        25.37       26.96       
C           96.06       17.58       31.67       
C           95.76       18.97       31.78       
C           95.03       16.69       31.48       
C           93.76       17.21       31.12       
C           93.52       18.63       31.01       
C           94.57       19.48       31.39       
N           92.6        16.48       30.87       
C           91.55       17.34       30.52       
C           92.1        18.82       30.53       
O           90.37       16.93       30.42       
C           92.54       15.02       31.06       
C           91.37       19.99       30.34       
C           89.92       20.2        30.2        
C           89.75       21.64       29.91       
N           90.96       22.3        29.88       
C           91.95       21.38       30.17       
C           88.74       19.42       30.21       
O           93.16       21.74       30.14       
C           91.32       23.63       29.42       
H           94.55       20.54       31.42       
H           95.22       15.64       31.4        
H           96.48       19.7        32.01       
H           88.53       23.25       29.33       
H           88.78       18.42       30.53       
H           86.5        19.49       30.07       
H           93.41       14.56       30.6        
H           91.75       14.57       30.52       
H           92.27508    14.72565    32.07552    
H           92.36       24.05       29.71       
H           91.17089    23.75781    28.34784    
H           90.63       24.3        29.96       
C           87.46       20.02       29.93       
C           88.52       22.21       29.62       
C           87.37       21.38       29.59       
C           103.17      14.51       33.28       
S           101.72      13.79       32.62       
C           102.96      15.85       33.48       
C           101.64      16.25       33.1        
C           100.86      15.29       32.49       
N           100.85      17.45       33.2        
C           99.59       17.18       32.61       
C           99.55       15.87       32.22       
C           101.31      18.72       33.59       
H           102.37      18.86       33.22       
H           100.83      19.6        33.25       
H           101.38      18.797      34.67502    
H           98.34       18.92       32.69       
H           103.66      16.47       34.02       
C           98.4        17.86       32.47       
S           97.93       15.47       31.71       
C           97.4        17.13       31.97       
C           110.46      8.01        38.59       
C           110.64      9.38        38.45       
C           109.56      7.42        37.75       
C           108.78      8.21        36.8        
C           109.01      9.6         36.66       
C           110.0       10.17       37.49       
N           107.91      7.71        35.78       
C           107.28      8.8         35.21       
C           108.0       10.1        35.65       
O           106.31      8.73        34.47       
C           108.0       6.37        35.22       
C           107.69      11.35       35.16       
C           106.42      11.93       34.61       
C           106.64      13.33       34.38       
N           107.92      13.63       34.67       
C           108.6       12.5        35.11       
C           105.13      11.44       34.37       
O           109.83      12.61       35.24       
C           108.52      14.79       34.06       
H           110.02      11.29       37.54       
H           109.33      6.37        37.89       
H           111.3       9.92        39.14       
H           105.77      15.29       34.05       
H           104.87      10.44       34.51       
H           103.19      11.8        33.59       
H           107.12      5.72        35.39       
H           108.79      5.8         35.79       
H           108.33375   6.32739     34.18323    
H           107.96      15.06       33.16       
H           108.68149   15.62555    34.74108    
H           109.48      14.44       33.65       
C           104.14      12.26       33.85       
C           105.61      14.23       34.06       
C           104.3       13.65       33.74       
C           113.24      3.56        44.32       
S           112.58      3.19        42.77       
C           113.42      4.91        44.49       
C           112.8       5.68        43.43       
C           112.41      4.85        42.43       
N           112.69      7.0         43.04       
C           112.07      6.95        41.8        
C           111.77      5.64        41.49       
C           113.45      8.16        43.56       
H           114.44      7.73        43.77       
H           113.56      8.98        42.84       
H           113.03311   8.47438     44.5168     
H           111.87      8.99        40.89       
H           113.98      5.34        45.29       
C           111.67      7.9         40.82       
S           110.98      5.62        39.99       
C           111.11      7.3         39.7        
C           118.06      -3.65       51.41       
C           117.25      -2.66       51.9        
C           118.33      -3.75       50.07       
C           117.76      -2.9        49.15       
C           116.84      -1.85       49.56       
C           116.65      -1.82       50.96       
N           117.99      -2.76       47.81       
C           117.27      -1.67       47.26       
C           116.47      -1.0        48.4        
O           117.39      -1.34       46.11       
C           118.89      -3.65       46.97       
C           115.64      0.09        48.23       
C           114.91      0.7         47.04       
C           114.29      1.94        47.47       
N           114.3       1.93        48.88       
C           115.06      0.95        49.37       
C           114.82      0.42        45.66       
O           115.18      0.79        50.6        
C           113.15      2.37        49.68       
H           115.93      -1.16       51.33       
H           118.81      -4.62       49.62       
H           117.01      -2.64       52.89       
H           113.12      3.64        46.88       
H           115.32      -0.52       45.19       
H           114.39      1.09        43.7        
H           119.8       -3.82       47.51       
H           119.16      -3.16       46.06       
H           118.33167   -4.52937    46.64896    
H           112.89      1.67        50.52       
H           113.2981    3.34744     50.1391     
H           112.35      2.53        48.9        
C           114.25      1.31        44.75       
C           113.67      2.77        46.51       
C           113.71      2.54        45.17       
C           120.85      -9.56       55.42       
S           120.68      -9.33       53.74       
C           120.66      -8.41       56.19       
C           120.27      -7.35       55.36       
C           120.21      -7.73       53.94       
N           119.73      -6.05       55.53       
C           119.37      -5.62       54.25       
C           119.8       -6.6        53.26       
C           119.69      -5.11       56.71       
H           118.7       -4.7        56.89       
H           120.4       -4.33       56.6        
H           119.99199   -5.61104    57.62971    
H           118.48      -3.62       54.17       
H           120.64      -8.54       57.23       
C           118.83      -4.44       53.66       
S           119.42      -6.05       51.63       
C           118.67      -4.62       52.33       
C           122.15      -20.29      58.34       
C           122.21      -19.32      59.32       
C           122.0       -19.94      57.01       
C           122.02      -18.6       56.7        
C           122.13      -17.6       57.69       
C           122.25      -17.97      59.07       
N           121.84      -18.06      55.45       
C           121.78      -16.61      55.51       
C           121.94      -16.26      56.94       
O           121.92      -15.88      54.53       
C           121.29      -18.7       54.29       
C           121.96      -14.9       57.32       
C           121.5       -13.61      56.69       
C           121.67      -12.54      57.59       
N           122.27      -13.01      58.76       
C           122.39      -14.37      58.74       
C           120.96      -13.33      55.45       
O           122.88      -15.0       59.67       
C           122.26      -12.28      60.09       
H           122.32      -17.26      59.88       
H           121.9       -20.7       56.21       
H           122.21      -19.54      60.42       
H           121.74      -10.38      57.99       
H           120.65      -14.1       54.75       
H           120.32      -11.86      54.14       
H           120.82      -17.89      53.66       
H           120.5       -19.37      54.48       
H           122.02441   -19.29761   53.74999    
H           121.31      -11.76      60.12       
H           123.08016   -11.57067   60.20083    
H           122.4       -12.97      60.91       
C           120.81      -12.0       55.09       
C           121.48      -11.16      57.21       
C           121.07      -10.89      55.91       
C           121.35      -27.66      60.54       
S           121.52      -26.2       61.47       
C           121.77      -27.48      59.26       
C           122.1       -26.1       58.98       
C           121.91      -25.28      60.08       
N           122.42      -25.34      57.91       
C           122.28      -24.03      58.32       
C           122.01      -23.97      59.67       
C           122.4       -25.79      56.5        
H           122.72      -24.95      55.91       
H           121.39      -25.88      56.19       
H           122.95845   -26.71109   56.33319    
H           122.62      -22.55      56.74       
H           121.86      -28.27      58.59       
C           122.39      -22.76      57.78       
S           121.91      -22.36      60.28       
C           122.21      -21.72      58.67       
C           115.54      -36.51      64.48       
C           116.45      -35.81      65.27       
C           115.52      -36.14      63.15       
C           116.22      -35.0       62.69       
C           116.96      -34.13      63.53       
C           116.99      -34.63      64.83       
N           116.1       -34.57      61.36       
C           116.83      -33.38      61.37       
C           117.49      -33.07      62.69       
O           117.05      -32.89      60.26       
C           115.33      -35.05      60.27       
C           118.27      -31.94      62.9        
C           119.04      -30.95      62.02       
C           119.71      -30.06      62.91       
N           119.32      -30.33      64.24       
C           118.61      -31.41      64.31       
C           119.38      -30.86      60.67       
O           118.39      -31.92      65.43       
C           119.71      -29.58      65.38       
H           117.55      -34.14      65.59       
H           114.98      -36.76      62.4        
H           116.54      -36.05      66.35       
H           120.98      -28.34      63.07       
H           119.0       -31.57      59.97       
H           120.23      -29.67      59.18       
H           116.07      -35.31      59.51       
H           114.81      -36.07      60.46       
H           114.52951   -34.34612   60.04227    
H           120.7       -29.06      65.42       
H           118.92655   -28.88749   65.68778    
H           119.78      -30.24      66.19       
C           120.13      -29.77      60.21       
C           120.52      -29.04      62.42       
C           120.77      -28.85      61.05       
C           111.36      -42.98      65.62       
S           111.16      -41.67      64.53       
C           112.41      -42.81      66.47       
C           113.08      -41.58      66.21       
C           112.53      -40.83      65.2        
N           114.13      -40.86      66.76       
C           114.19      -39.67      66.1        
C           113.22      -39.59      65.05       
C           114.96      -41.16      67.9        
H           115.46      -40.26      68.25       
H           115.74      -41.91      67.75       
H           114.39099   -41.56969   68.73455    
H           115.92      -38.38      66.66       
H           112.69      -43.55      67.22       
C           115.02      -38.51      66.05       
S           113.46      -38.18      64.02       
C           114.73      -37.58      65.02       
C           103.14      -50.7       64.43       
C           104.35      -51.09      64.88       
C           103.0       -49.38      64.06       
C           104.03      -48.47      64.12       
C           105.28      -48.79      64.65       
C           105.37      -50.13      65.05       
N           103.99      -47.1       63.79       
C           105.15      -46.5       64.17       
C           106.13      -47.53      64.67       
O           105.35      -45.34      64.31       
C           103.23      -46.57      62.65       
C           107.32      -47.16      65.26       
C           108.24      -45.94      65.22       
C           109.29      -46.12      66.15       
N           109.05      -47.26      66.85       
C           107.99      -47.98      66.36       
C           108.3       -44.87      64.42       
O           107.62      -49.07      66.83       
C           110.04      -47.99      67.64       
H           106.25      -50.52      65.51       
H           102.05      -49.07      63.77       
H           104.55      -52.11      65.14       
H           111.01      -45.23      67.13       
H           107.49      -44.75      63.69       
H           109.23      -43.05      63.82       
H           102.37      -47.15      62.48       
H           103.0       -45.58      62.87       
H           103.98294   -46.56296   61.86188    
H           111.06      -47.77      67.33       
H           109.93447   -47.80709   68.70935    
H           109.88      -49.04      67.41       
C           109.34      -43.92      64.49       
C           110.28      -45.18      66.34       
C           110.37      -44.04      65.48       
C           96.52       -54.62      65.37       
S           96.95       -53.48      64.15       
C           97.6        -54.95      66.12       
C           98.76       -54.29      65.7        
C           98.61       -53.42      64.62       
N           100.04      -54.11      66.21       
C           100.69      -53.22      65.36       
C           99.77       -52.78      64.35       
C           100.61      -54.55      67.46       
H           101.61      -54.27      67.7        
H           100.86      -55.61      67.49       
H           99.94869    -54.34154   68.30102    
H           102.58      -52.67      66.28       
H           97.52       -55.61      66.97       
C           101.87      -52.53      65.46       
S           100.64      -51.49      63.42       
C           102.08      -51.65      64.41       
H           21.96       34.27       13.46       
H           95.47       -54.81      65.69       
