512

C           28.7        38.04       27.76       
C           28.45       37.48       29.03       
C           27.62       38.38       26.94       
C           26.36       38.28       27.42       
C           26.06       37.83       28.75       
C           27.16       37.41       29.54       
N           25.16       38.44       26.71       
C           24.06       38.36       27.54       
C           24.55       37.91       28.95       
O           22.99       38.18       27.0        
C           25.05       38.84       25.31       
C           23.64       37.64       29.98       
C           22.19       37.88       30.11       
C           21.86       37.28       31.37       
N           23.0        36.63       31.95       
C           24.11       36.87       31.19       
C           21.14       38.46       29.43       
O           25.22       36.49       31.59       
C           23.02       35.8        33.11       
H           27.01       37.08       30.51       
H           27.81       38.75       25.89       
H           29.23       37.09       29.58       
H           20.31       36.64       32.83       
H           21.23       39.0        28.51       
H           19.03       38.78       29.31       
H           25.89       38.51       24.75       
H           24.21       38.29       24.89       
H           24.96693    39.92681    25.31692    
H           22.1        35.21       33.1        
H           23.19427    36.30887    34.05804    
H           23.87       35.16       32.8        
C           19.88       38.4        29.95       
C           20.55       37.19       31.89       
C           19.49       37.8        31.14       
C           36.29       38.85       26.2        
S           35.49       37.86       27.39       
C           35.46       39.67       25.56       
C           34.06       39.47       25.92       
C           33.98       38.51       26.94       
N           32.81       39.89       25.52       
C           31.92       39.23       26.33       
C           32.59       38.35       27.16       
C           32.57       40.5        24.26       
H           31.49       40.71       24.09       
H           32.93       39.74       23.51       
H           33.07699    41.46469    24.23888    
H           29.8        39.76       25.76       
H           35.81       40.36       24.83       
C           30.53       39.24       26.4        
S           31.45       37.57       28.21       
C           30.09       38.33       27.43       
C           47.0        36.12       24.23       
C           46.03       35.27       24.85       
C           46.61       37.49       23.96       
C           45.31       37.9        24.37       
C           44.43       37.05       25.01       
C           44.82       35.74       25.3        
N           44.73       39.1        24.21       
C           43.41       39.04       24.49       
C           43.14       37.76       25.25       
O           42.71       40.0        24.47       
C           45.46       40.38       24.46       
C           41.95       37.54       25.9        
C           40.62       38.16       25.79       
C           39.8        37.46       26.81       
N           40.56       36.57       27.59       
C           41.91       36.63       27.12       
C           39.88       39.07       24.99       
O           42.76       35.92       27.59       
C           40.26       35.96       28.85       
H           44.1        35.07       25.79       
H           47.26       38.17       23.39       
H           46.33       34.21       25.02       
H           37.88       37.17       27.69       
H           40.38       39.46       24.13       
H           38.12       40.09       24.49       
H           44.93       41.02       25.21       
H           46.48       40.09       24.81       
H           45.58594    40.85578    23.48744    
H           39.69       36.64       29.52       
H           39.73838    35.01413    28.70395    
H           41.21       35.64       29.24       
C           38.53       39.33       25.2        
C           38.42       37.76       26.95       
C           37.78       38.7        26.14       
C           53.84       32.9        22.72       
S           52.3        32.13       23.03       
C           53.66       34.18       22.33       
C           52.36       34.64       22.54       
C           51.4        33.61       22.81       
N           51.8        35.89       22.57       
C           50.48       35.63       23.02       
C           50.18       34.26       23.06       
C           52.45       37.14       22.48       
H           51.67       37.93       22.53       
H           52.86       37.23       21.47       
H           53.22999    37.25839    23.23213    
H           49.4        37.55       23.43       
H           54.48       34.84       22.02       
C           49.37       36.46       23.41       
S           48.55       33.92       23.46       
C           48.27       35.66       23.7        
C           64.15       29.14       25.07       
C           63.89       30.23       24.33       
C           63.04       28.55       25.72       
C           61.8        28.89       25.38       
C           61.51       29.92       24.4        
C           62.67       30.61       23.93       
N           60.62       28.34       25.81       
C           59.53       28.9        25.19       
C           60.03       30.05       24.27       
O           58.41       28.47       25.4        
C           60.49       27.38       26.82       
C           59.21       30.94       23.53       
C           57.75       31.25       23.53       
C           57.45       32.2        22.48       
N           58.63       32.57       21.91       
C           59.68       31.93       22.44       
C           56.65       30.79       24.08       
O           60.8        32.12       22.04       
C           58.81       33.47       20.79       
H           62.56       31.48       23.37       
H           63.18       27.87       26.49       
H           64.7        30.91       24.05       
H           56.07       33.37       21.34       
H           56.74       30.01       24.87       
H           54.6        30.79       24.32       
H           59.85       26.6        26.49       
H           61.41       26.85       27.07       
H           60.11904    27.80089    27.75453    
H           57.93       33.56       20.16       
H           59.06459    34.48148    21.10652    
H           59.69       33.08       20.23       
C           55.35       31.25       23.77       
C           56.23       32.74       22.2        
C           55.13       32.28       22.87       
C           70.95       25.67       26.51       
S           69.33       25.15       26.82       
C           70.93       26.93       26.03       
C           69.67       27.62       25.94       
C           68.66       26.69       26.28       
N           69.15       28.89       25.69       
C           67.79       28.69       25.7        
C           67.51       27.36       25.97       
C           69.83       30.16       25.26       
H           69.16       30.97       25.35       
H           70.14       30.0        24.22       
H           70.64056    30.34168    25.96575    
H           66.58       30.5        24.98       
H           71.88       27.48       25.95       
C           66.64       29.49       25.39       
S           65.8        27.07       25.91       
C           65.52       28.76       25.43       
C           79.33       18.48       29.14       
C           79.48       19.8        28.69       
C           77.98       18.01       29.24       
C           76.96       18.9        28.85       
C           77.12       20.22       28.27       
C           78.41       20.65       28.43       
N           75.56       18.67       29.0        
C           74.91       19.72       28.45       
C           75.8        20.87       27.97       
O           73.71       19.69       28.44       
C           74.9        17.59       29.62       
C           75.41       22.13       27.51       
C           74.15       22.91       27.46       
C           74.39       24.17       26.9        
N           75.74       24.29       26.65       
C           76.46       23.2        27.07       
C           72.79       22.64       27.76       
O           77.62       23.12       26.82       
C           76.33       25.3        25.82       
H           78.62       21.72       28.32       
H           77.82       17.02       29.66       
H           80.49       20.28       28.65       
H           73.67       26.07       26.16       
H           72.55       21.68       28.26       
H           70.76       23.07       27.5        
H           75.64       17.0        30.09       
H           74.35       17.88       30.48       
H           74.46127    16.94236    28.86094    
H           75.66       25.56       24.98       
H           76.56116    26.24564    26.31033    
H           77.2        24.84       25.29       
C           71.77       23.49       27.42       
C           73.39       25.06       26.58       
C           72.03       24.74       26.83       
C           85.79       14.38       28.04       
S           85.6        16.06       28.44       
C           84.59       13.67       28.14       
C           83.45       14.51       28.47       
C           83.85       15.82       28.69       
N           82.09       14.38       28.68       
C           81.66       15.68       28.88       
C           82.73       16.61       28.87       
C           81.33       13.13       28.58       
H           80.27       13.24       28.75       
H           81.64       12.36       29.29       
H           81.4756     12.71504    27.58265    
H           79.47       15.82       29.21       
H           84.62       12.61       28.1        
C           80.41       16.25       29.17       
S           82.19       18.27       29.15       
C           80.51       17.63       29.3        
C           96.33       10.39       28.03       
C           96.03       11.57       27.41       
C           95.24       9.67        28.5        
C           93.91       10.11       28.41       
C           93.58       11.38       27.83       
C           94.71       12.07       27.33       
N           92.76       9.49        28.86       
C           91.67       10.35       28.72       
C           92.11       11.6        27.95       
O           90.65       9.96        29.22       
C           92.73       8.2         29.55       
C           91.23       12.62       27.54       
C           89.75       12.79       27.57       
C           89.38       14.06       27.25       
N           90.58       14.73       26.81       
C           91.71       13.93       27.02       
C           88.62       11.91       27.72       
O           92.81       14.5        26.92       
C           90.6        16.11       26.34       
H           94.61       13.01       26.83       
H           95.42       8.7         29.04       
H           96.85       12.07       26.94       
H           87.98       15.71       27.21       
H           88.75       10.83       27.75       
H           86.41       11.79       28.14       
H           91.9        8.2         30.33       
H           93.63       7.97        30.08       
H           92.51293    7.38238     28.86262    
H           91.46       16.62       26.79       
H           90.67147    16.24579    25.26085    
H           89.83       16.62       26.91       
C           87.3        12.44       27.87       
C           88.11       14.65       27.31       
C           87.09       13.84       27.75       
C           103.32      7.22        29.39       
S           101.7       6.51        29.31       
C           103.26      8.57        29.18       
C           101.9       9.03        28.99       
C           100.96      8.03        29.0        
N           101.32      10.24       28.75       
C           99.97       10.0        28.53       
C           99.73       8.67        28.77       
C           102.05      11.47       28.71       
H           101.4       12.2        28.25       
H           102.39      11.95       29.58       
H           102.82506   11.37671    27.94929    
H           98.74       11.82       28.09       
H           104.04      9.26        29.36       
C           98.8        10.74       28.26       
S           98.04       8.34        28.46       
C           97.69       9.96        28.14       
C           111.69      1.23        33.79       
C           111.75      2.63        33.65       
C           110.67      0.58        33.12       
C           109.64      1.36        32.56       
C           109.72      2.75        32.34       
C           110.79      3.36        33.03       
N           108.57      0.87        31.78       
C           107.79      1.87        31.35       
C           108.46      3.21        31.72       
O           106.74      1.65        30.76       
C           108.23      -0.5        31.7        
C           107.98      4.48        31.32       
C           106.63      4.96        30.95       
C           106.81      6.29        30.45       
N           108.2       6.56        30.43       
C           108.93      5.58        31.05       
C           105.33      4.38        30.82       
O           110.14      5.63        30.99       
C           108.93      7.65        29.79       
H           110.89      4.44        33.07       
H           110.65      -0.52       33.1        
H           112.55      3.1         34.11       
H           105.93      7.95        29.42       
H           105.16      3.41        31.13       
H           103.25      4.69        30.27       
H           107.1       -0.55       31.59       
H           108.48      -1.07       32.58       
H           108.59108   -1.02392    30.815      
H           108.45      8.14        28.97       
H           109.25232   8.37521     30.53718    
H           109.69      7.11        29.25       
C           104.2       5.17        30.3        
C           105.76      7.02        29.92       
C           104.44      6.45        29.9        
C           116.67      -3.58       37.47       
S           115.17      -3.88       36.54       
C           116.74      -2.24       37.69       
C           115.84      -1.43       36.9        
C           114.88      -2.18       36.24       
N           115.7       -0.14       36.49       
C           114.57      -0.01       35.72       
C           114.07      -1.29       35.52       
C           116.71      0.91        36.73       
H           116.12      1.69        37.24       
H           117.38      0.54        37.53       
H           117.14576   1.23682     35.78586    
H           114.08      2.07        35.08       
H           117.6       -1.88       38.26       
C           113.84      0.99        35.09       
S           112.57      -1.19       34.62       
C           112.7       0.53        34.51       
C           121.64      -12.31      42.29       
C           121.59      -11.14      42.99       
C           121.16      -12.36      40.96       
C           120.55      -11.3       40.36       
C           120.53      -10.03      41.01       
C           121.01      -9.98       42.34       
N           120.03      -11.29      39.13       
C           119.62      -10.03      38.78       
C           119.91      -9.09       39.97       
O           119.07      -9.8        37.68       
C           120.17      -12.33      38.07       
C           119.7       -7.76       39.96       
C           118.83      -6.85       39.23       
C           119.02      -5.53       39.68       
N           119.97      -5.59       40.7        
C           120.4       -6.83       40.98       
C           117.85      -6.96       38.19       
O           121.39      -7.03       41.74       
C           120.55      -4.36       41.27       
H           121.0       -9.04       42.84       
H           121.22      -13.28      40.33       
H           121.8       -11.16      44.05       
H           118.49      -3.48       39.62       
H           117.68      -7.94       37.76       
H           116.48      -6.13       36.87       
H           121.13      -12.84      38.15       
H           120.03      -11.97      37.04       
H           119.41908   -13.10952   38.19873    
H           120.48      -3.55       40.52       
H           120.16465   -4.17083    42.27191    
H           121.66      -4.63       41.41       
C           117.19      -5.89       37.64       
C           118.38      -4.41       39.07       
C           117.44      -4.62       38.06       
C           124.29      -19.17      45.22       
S           123.64      -18.75      43.65       
C           124.58      -18.03      45.92       
C           124.08      -16.84      45.32       
C           123.55      -17.05      44.04       
N           124.07      -15.48      45.57       
C           123.48      -14.82      44.53       
C           123.14      -15.79      43.52       
C           124.49      -14.79      46.79       
H           124.16      -13.73      46.8        
H           125.56      -14.78      47.02       
H           123.93221   -15.32606   47.55786    
H           122.97      -12.62      44.86       
H           125.13      -18.14      46.88       
C           122.91      -13.48      44.24       
S           122.29      -15.01      42.27       
C           122.2       -13.46      43.01       
C           124.1       -29.94      47.45       
C           123.77      -28.93      48.35       
C           124.68      -29.5       46.26       
C           124.99      -28.2       46.05       
C           124.67      -27.12      46.96       
C           123.94      -27.54      48.09       
N           125.57      -27.59      44.92       
C           125.67      -26.24      45.02       
C           125.08      -25.81      46.37       
O           126.06      -25.57      44.11       
C           126.02      -28.29      43.69       
C           125.08      -24.53      46.95       
C           125.05      -23.29      46.17       
C           124.79      -22.27      47.13       
N           124.71      -22.75      48.43       
C           124.89      -24.06      48.38       
C           125.09      -22.86      44.8        
O           124.7       -24.77      49.36       
C           124.86      -21.96      49.64       
H           123.68      -26.79      48.83       
H           124.91      -30.21      45.48       
H           123.4       -29.34      49.28       
H           124.27      -20.24      47.65       
H           125.29      -23.5       43.95       
H           125.19      -21.13      43.61       
H           125.93      -27.61      42.79       
H           125.36      -29.07      43.4        
H           127.09457   -28.47275   43.69       
H           124.06      -21.19      49.79       
H           125.83921   -21.48458   49.69677    
H           124.6       -22.58      50.46       
C           124.91      -21.49      44.55       
C           124.59      -20.89      46.83       
C           124.65      -20.55      45.53       
C           121.05      -36.65      50.0        
S           120.39      -35.04      49.76       
C           122.3       -36.81      49.51       
C           122.8       -35.54      48.99       
C           121.96      -34.46      49.23       
N           123.93      -35.04      48.27       
C           123.74      -33.68      48.05       
C           122.58      -33.32      48.75       
C           125.02      -35.82      47.73       
H           125.86      -35.14      47.66       
H           124.79      -36.09      46.67       
H           125.26915   -36.66272   48.37486    
H           125.29      -32.43      46.95       
H           122.87      -37.71      49.53       
C           124.33      -32.54      47.49       
S           122.32      -31.63      48.67       
C           123.68      -31.31      47.73       
C           113.52      -44.24      53.01       
C           114.87      -44.54      52.71       
C           113.15      -42.86      53.02       
C           114.14      -41.92      52.75       
C           115.5       -42.22      52.58       
C           115.84      -43.6       52.53       
N           114.0       -40.55      52.78       
C           115.17      -39.92      52.56       
C           116.28      -41.01      52.37       
O           115.13      -38.74      52.6        
C           112.76      -39.84      53.08       
C           117.64      -40.65      52.29       
C           118.29      -39.51      51.69       
C           119.7       -39.72      51.75       
N           119.93      -40.85      52.48       
C           118.76      -41.54      52.72       
C           117.88      -38.31      51.17       
O           118.71      -42.7       53.12       
C           121.18      -41.49      52.95       
H           116.88      -43.93      52.33       
H           112.19      -42.55      53.2        
H           115.32      -45.56      52.67       
H           121.69      -39.12      51.31       
H           116.84      -38.16      51.1        
H           118.38      -36.55      50.12       
H           112.69      -38.9       52.55       
H           111.95      -40.34      52.61       
H           112.59378   -39.64608   54.13965    
H           121.88      -41.31      52.11       
H           121.59944   -41.01994   53.8395     
H           121.04      -42.55      53.17       
C           118.77      -37.42      50.55       
C           120.65      -38.87      51.21       
C           120.2       -37.65      50.6        
C           107.77      -49.42      54.4        
S           107.72      -47.69      54.06       
C           109.03      -49.97      54.36       
C           110.0       -48.94      54.09       
C           109.47      -47.65      53.84       
N           111.37      -48.77      54.0        
C           111.71      -47.47      53.73       
C           110.49      -46.72      53.59       
C           112.34      -49.78      54.01       
H           113.29      -49.28      54.14       
H           112.47      -50.39      53.09       
H           112.12081   -50.48553   54.81143    
H           113.88      -47.04      53.29       
H           109.28      -50.98      54.51       
C           112.84      -46.67      53.44       
S           110.77      -45.01      53.26       
C           112.56      -45.33      53.21       
C           98.2        -52.1       59.33       
C           99.2        -53.06      59.12       
C           98.2        -51.04      58.44       
C           99.17       -50.98      57.44       
C           100.3       -51.88      57.34       
C           100.24      -53.0       58.17       
N           99.35       -49.96      56.58       
C           100.58      -50.0       56.04       
C           101.33      -51.34      56.37       
O           101.01      -49.01      55.5        
C           98.29       -49.0       56.34       
C           102.72      -51.6       56.13       
C           103.79      -50.84      55.46       
C           104.95      -51.65      55.55       
N           104.72      -52.79      56.28       
C           103.42      -52.85      56.71       
C           103.99      -49.74      54.69       
O           102.97      -53.8       57.42       
C           105.73      -53.5       57.06       
H           100.89      -53.81      58.14       
H           97.45       -50.29      58.55       
H           99.15       -53.88      59.78       
H           107.05      -51.95      55.14       
H           103.19      -49.04      54.5        
H           105.3       -48.27      53.93       
H           97.35       -49.41      56.76       
H           98.46       -48.04      56.86       
H           98.00557    -48.93436   55.28981    
H           105.28      -53.69      58.03       
H           106.13552   -54.40352   56.60468    
H           106.43      -52.8       57.41       
C           105.26      -49.29      54.25       
C           106.22      -51.23      55.13       
C           106.41      -50.02      54.44       
C           92.74       -50.89      64.88       
S           93.24       -49.98      63.46       
C           93.48       -52.14      64.95       
C           94.38       -52.33      63.8        
C           94.38       -51.23      62.94       
N           95.31       -53.19      63.42       
C           95.89       -52.68      62.34       
C           95.39       -51.45      61.98       
C           95.6        -54.51      63.89       
H           96.0        -55.12      63.02       
H           94.64       -55.01      64.14       
H           96.26249    -54.44067   64.75278    
H           97.47       -53.96      61.39       
H           93.32       -52.78      65.85       
C           96.93       -53.05      61.43       
S           96.33       -50.64      60.75       
C           97.25       -52.13      60.45       
H           18.82       38.44       31.67       
H           91.75       -50.77      65.47       
