512

C           37.39       42.45       18.02       
C           37.03       41.52       19.03       
C           36.35       43.19       17.46       
C           35.03       42.85       17.84       
C           34.64       41.97       18.91       
C           35.7        41.32       19.51       
N           33.87       43.44       17.3        
C           32.78       42.94       17.93       
C           33.18       41.9        18.97       
O           31.65       43.42       17.81       
C           33.79       43.98       15.99       
C           32.21       41.13       19.65       
C           30.71       40.93       19.66       
C           30.35       40.01       20.73       
N           31.45       39.48       21.32       
C           32.58       39.96       20.65       
C           29.63       41.35       18.87       
O           33.69       39.62       21.0        
C           31.38       38.23       22.03       
H           35.5        40.55       20.19       
H           36.66       43.95       16.82       
H           37.81       41.02       19.5        
H           28.8        39.08       21.87       
H           29.77       42.1        18.1        
H           27.56       41.3        18.54       
H           32.96       44.72       16.05       
H           34.71       44.41       15.61       
H           33.52227    43.21203    15.2643     
H           30.41       37.77       21.99       
H           31.63424    38.35712    23.08228    
H           32.09       37.55       21.54       
C           28.33       40.91       19.15       
C           29.01       39.76       21.08       
C           27.99       40.26       20.33       
C           44.53       41.18       15.31       
S           43.53       40.24       16.35       
C           43.98       42.43       15.03       
C           42.71       42.63       15.61       
C           42.4        41.54       16.48       
N           41.71       43.59       15.7        
C           40.67       43.09       16.43       
C           41.08       41.87       16.98       
C           41.74       44.93       15.15       
H           40.83       45.5        15.3        
H           41.74       44.82       14.07       
H           42.58919    45.51028    15.51091    
H           38.86       44.38       16.56       
H           44.46       43.18       14.4        
C           39.32       43.45       16.79       
S           39.75       41.1        17.87       
C           38.72       42.47       17.53       
C           54.72       37.51       13.04       
C           53.85       36.93       13.96       
C           54.23       38.5        12.15       
C           52.89       38.84       12.3        
C           52.0        38.27       13.25       
C           52.47       37.21       14.0        
N           52.32       39.98       11.77       
C           50.94       39.95       12.05       
C           50.69       38.86       13.07       
O           50.11       40.66       11.45       
C           53.0        41.21       11.42       
C           49.43       38.58       13.57       
C           48.26       39.44       13.86       
C           47.25       38.66       14.56       
N           47.72       37.29       14.7        
C           48.99       37.23       14.24       
C           47.92       40.78       13.68       
O           49.5        36.13       14.36       
C           47.06       36.21       15.29       
H           51.85       36.65       14.72       
H           54.82       38.93       11.34       
H           54.23       36.21       14.76       
H           45.35       38.51       15.59       
H           48.69       41.35       13.24       
H           46.46       42.25       13.88       
H           54.12       41.1        11.65       
H           52.95       41.46       10.35       
H           52.61476    42.01487    12.04601    
H           46.35       36.53       16.05       
H           46.42981    35.67186    14.58192    
H           47.72       35.57       15.8        
C           46.65       41.28       14.13       
C           46.0        39.13       14.94       
C           45.7        40.51       14.74       
C           62.27       35.96       14.41       
S           60.83       35.78       15.43       
C           61.93       36.47       13.19       
C           60.56       36.8        13.08       
C           59.82       36.41       14.18       
N           59.71       37.32       12.11       
C           58.45       37.29       12.59       
C           58.48       36.54       13.76       
C           60.09       38.22       11.08       
H           59.15       38.37       10.53       
H           60.86       37.77       10.42       
H           60.2762     39.20112    11.51685    
H           56.87       38.15       11.31       
H           62.73       36.61       12.44       
C           57.12       37.68       12.25       
S           56.9        36.27       14.44       
C           56.16       37.14       13.05       
C           71.72       30.0        16.26       
C           71.75       31.22       15.55       
C           70.51       29.54       16.72       
C           69.42       30.36       16.57       
C           69.41       31.56       15.91       
C           70.62       31.94       15.33       
N           68.19       30.13       17.19       
C           67.28       31.09       16.74       
C           68.02       32.17       15.95       
O           66.16       31.06       17.2        
C           67.97       29.36       18.36       
C           67.45       33.33       15.41       
C           66.06       33.84       15.39       
C           66.01       35.11       14.63       
N           67.33       35.4        14.29       
C           68.21       34.47       14.7        
C           64.77       33.45       15.87       
O           69.3        34.72       14.49       
C           67.74       36.75       13.74       
H           70.66       32.92       14.88       
H           70.5        28.58       17.27       
H           72.67       31.61       15.03       
H           64.82       36.8        13.84       
H           64.75       32.51       16.4        
H           62.65       33.71       15.86       
H           67.05       28.81       18.14       
H           68.74       28.64       18.54       
H           67.83333    29.97142    19.25196    
H           68.7        37.03       14.15       
H           67.54127    36.7429     12.66829    
H           67.02       37.43       14.17       
C           63.61       34.16       15.61       
C           64.77       35.8        14.36       
C           63.56       35.35       14.88       
C           77.94       25.38       17.78       
S           76.22       25.1        18.28       
C           78.08       26.55       17.14       
C           76.86       27.2        16.97       
C           75.73       26.58       17.46       
N           76.5        28.4        16.43       
C           75.11       28.57       16.51       
C           74.61       27.44       17.19       
C           77.4        29.22       15.66       
H           76.86       30.0        15.06       
H           77.94       28.64       14.88       
H           78.14966    29.74476    16.25223    
H           74.35       30.43       15.63       
H           79.04       26.94       16.69       
C           74.16       29.53       16.18       
S           72.9        27.58       17.28       
C           72.89       29.16       16.46       
C           85.91       17.97       20.84       
C           86.14       19.02       20.12       
C           84.58       17.72       21.2        
C           83.56       18.53       20.66       
C           83.9        19.71       19.94       
C           85.23       19.98       19.67       
N           82.24       18.52       20.96       
C           81.61       19.64       20.52       
C           82.63       20.4        19.69       
O           80.46       19.9        20.67       
C           81.62       17.49       21.78       
C           82.16       21.56       19.02       
C           80.86       22.4        18.84       
C           81.17       23.52       17.96       
N           82.44       23.35       17.47       
C           83.1        22.25       18.03       
C           79.53       22.42       19.32       
O           84.27       21.98       17.79       
C           83.31       24.34       16.75       
H           85.56       20.91       19.25       
H           84.38       16.9        21.91       
H           87.17       19.36       19.93       
H           80.52       25.22       16.89       
H           79.14       21.63       19.9        
H           77.5        23.24       19.4        
H           82.34       16.77       22.19       
H           81.15       17.94       22.67       
H           80.80987    16.94762    21.29255    
H           82.74       25.0        16.15       
H           83.90435    24.9637     17.41772    
H           83.99       23.75       16.1        
C           78.54       23.36       19.02       
C           80.22       24.44       17.58       
C           78.94       24.37       18.09       
C           92.36       15.08       24.01       
S           92.05       16.55       23.14       
C           91.19       14.3        24.13       
C           90.11       14.89       23.39       
C           90.49       16.09       22.76       
N           88.87       14.48       23.04       
C           88.33       15.59       22.42       
C           89.3        16.55       22.12       
C           88.27       13.17       23.2        
H           87.5        13.04       22.51       
H           87.99       12.98       24.28       
H           88.96532    12.39663    22.87362    
H           86.1        15.48       22.33       
H           91.26       13.35       24.73       
C           87.01       15.97       22.04       
S           88.62       17.83       21.23       
C           87.02       17.16       21.36       
C           101.99      13.79       29.64       
C           101.76      14.83       28.76       
C           100.89      12.96       29.94       
C           99.68       13.18       29.34       
C           99.44       14.22       28.46       
C           100.43      15.13       28.34       
N           98.51       12.35       29.42       
C           97.49       12.88       28.61       
C           98.04       14.16       27.93       
O           96.35       12.51       28.67       
C           98.34       11.18       30.16       
C           97.32       14.96       27.07       
C           96.06       14.65       26.39       
C           95.64       15.89       25.81       
N           96.47       16.99       26.21       
C           97.54       16.48       26.93       
C           95.16       13.52       26.12       
O           98.39       17.18       27.38       
C           96.27       18.44       26.05       
H           100.24      15.95       27.59       
H           101.09      12.08       30.56       
H           102.6       15.58       28.51       
H           94.04       16.97       24.75       
H           95.33       12.62       26.58       
H           93.37       12.74       25.16       
H           97.27       11.17       30.6        
H           99.04       11.13       31.02       
H           98.41099    10.32105    29.49272    
H           96.44       19.04       27.0        
H           96.69221    18.88367    25.14834    
H           95.2        18.54       25.87       
C           93.99       13.62       25.27       
C           94.44       16.0        25.07       
C           93.6        14.87       24.78       
C           109.09      11.17       31.55       
S           107.45      10.48       31.36       
C           108.98      12.58       31.38       
C           107.64      13.0        31.14       
C           106.7       11.98       31.13       
N           106.95      14.2        30.89       
C           105.65      13.9        30.68       
C           105.47      12.53       30.8        
C           107.56      15.55       30.87       
H           108.41      15.41       30.18       
H           106.88      16.33       30.51       
H           107.88517   15.79907    31.88011    
H           104.25      15.56       30.09       
H           109.85      13.2        31.34       
C           104.35      14.53       30.34       
S           103.89      11.98       30.52       
C           103.34      13.55       30.17       
C           117.66      4.45        34.51       
C           117.59      5.73        34.97       
C           116.62      3.93        33.68       
C           115.52      4.72        33.43       
C           115.47      6.16        33.77       
C           116.57      6.6         34.5        
N           114.45      4.35        32.66       
C           113.54      5.37        32.65       
C           114.11      6.66        33.29       
O           112.53      5.31        31.92       
C           114.31      3.2         31.87       
C           113.51      7.9         33.23       
C           112.26      8.51        32.58       
C           112.3       9.93        32.88       
N           113.33      10.2        33.66       
C           114.05      9.07        34.0        
C           111.16      8.03        31.9        
O           114.87      9.08        34.92       
C           113.64      11.49       34.16       
H           116.59      7.61        34.83       
H           116.59      2.96        33.29       
H           118.18      6.06        35.81       
H           111.38      11.89       32.53       
H           111.08      6.96        31.74       
H           109.21      8.57        30.99       
H           115.31      3.04        31.51       
H           113.59      3.39        31.07       
H           113.93227   2.35359     32.4436     
H           113.98      11.33       35.17       
H           114.32008   11.97377    33.45889    
H           112.63      11.91       34.15       
C           110.07      8.93        31.56       
C           111.37      10.83       32.29       
C           110.25      10.31       31.76       
C           120.86      -1.2        38.6        
S           119.6       -1.28       37.36       
C           121.5       0.03        38.6        
C           120.88      0.96        37.72       
C           119.93      0.36        36.93       
N           121.11      2.32        37.41       
C           120.16      2.6         36.5        
C           119.43      1.46        36.21       
C           121.93      3.31        38.08       
H           121.58      4.28        37.58       
H           121.66      3.39        39.13       
H           122.98909   3.05238     38.07284    
H           119.98      4.79        35.92       
H           122.39      0.28        39.23       
C           119.7       3.74        35.77       
S           118.1       1.79        35.1        
C           118.6       3.48        35.08       
C           122.87      -10.0       45.45       
C           123.88      -9.42       44.76       
C           121.55      -9.72       45.01       
C           121.38      -8.81       44.03       
C           122.38      -8.06       43.33       
C           123.69      -8.51       43.72       
N           120.08      -8.45       43.54       
C           120.22      -7.44       42.57       
C           121.72      -7.1        42.44       
O           119.26      -6.98       41.95       
C           118.79      -8.93       43.98       
C           122.2       -6.04       41.63       
C           121.62      -4.94       40.79       
C           122.66      -4.08       40.3        
N           123.87      -4.69       40.62       
C           123.68      -5.91       41.28       
C           120.31      -4.37       40.61       
O           124.67      -6.49       41.62       
C           125.2       -4.31       40.14       
H           124.58      -8.21       43.21       
H           120.78      -10.22      45.57       
H           124.85      -9.57       45.11       
H           123.27      -2.44       39.11       
H           119.46      -4.94       40.99       
H           119.16      -2.79       39.89       
H           118.97      -10.02      44.2        
H           118.04      -8.84       43.23       
H           118.47915   -8.43263    44.89875    
H           125.1       -4.01       39.11       
H           125.6018    -3.47718    40.71713    
H           125.81      -5.22       40.12       
C           120.13      -3.15       39.91       
C           122.45      -2.98       39.47       
C           121.16      -2.44       39.31       
C           122.06      -14.19      51.83       
S           121.15      -14.24      50.33       
C           123.05      -13.2       51.83       
C           123.24      -12.67      50.54       
C           122.25      -13.09      49.65       
N           124.08      -11.8       49.93       
C           123.56      -11.57      48.68       
C           122.39      -12.32      48.47       
C           125.0       -10.89      50.56       
H           125.74      -10.46      49.91       
H           125.55      -11.56      51.23       
H           124.46676   -10.0397    50.98515    
H           124.56      -9.95       47.45       
H           123.54      -12.96      52.77       
C           123.82      -10.69      47.57       
S           121.69      -12.02      46.92       
C           123.02      -10.89      46.52       
C           118.58      -21.92      59.05       
C           119.61      -21.07      59.53       
C           117.77      -21.46      58.0        
C           118.15      -20.32      57.25       
C           119.27      -19.52      57.64       
C           119.96      -19.92      58.78       
N           117.42      -19.75      56.16       
C           118.05      -18.58      55.72       
C           119.33      -18.45      56.56       
O           117.66      -17.86      54.85       
C           116.06      -20.09      55.75       
C           120.21      -17.5       56.24       
C           120.64      -16.93      54.92       
C           121.61      -15.86      55.22       
N           121.81      -15.88      56.58       
C           121.17      -16.92      57.24       
C           120.32      -17.08      53.56       
O           121.18      -17.01      58.38       
C           122.47      -14.84      57.31       
H           120.79      -19.36      59.13       
H           116.84      -21.99      57.77       
H           120.11      -21.31      60.44       
H           122.77      -14.11      54.4        
H           119.56      -17.75      53.35       
H           120.54      -16.45      51.49       
H           115.65      -19.19      55.24       
H           115.44      -20.28      56.63       
H           116.11666   -21.01067   55.16927    
H           122.04      -13.85      57.04       
H           123.54681   -14.81221   57.14327    
H           122.4       -15.12      58.34       
C           120.84      -16.29      52.54       
C           122.15      -15.01      54.19       
C           121.64      -15.17      52.85       
C           116.51      -29.09      61.59       
S           116.08      -28.16      60.12       
C           117.5       -28.42      62.27       
C           117.85      -27.14      61.68       
C           117.18      -26.9       60.43       
N           118.68      -26.05      62.02       
C           118.37      -25.06      61.08       
C           117.55      -25.6       60.12       
C           119.84      -26.15      62.85       
H           119.95      -25.14      63.26       
H           120.64      -26.4       62.22       
H           119.75766   -26.91165   63.62538    
H           119.42      -23.16      61.43       
H           117.9       -28.9       63.14       
C           118.85      -23.75      60.73       
S           117.22      -24.45      58.89       
C           118.27      -23.27      59.62       
C           112.36      -39.43      63.71       
C           112.69      -38.51      64.7        
C           112.56      -39.0       62.4        
C           113.07      -37.71      62.11       
C           113.54      -36.82      63.14       
C           113.29      -37.32      64.45       
N           113.29      -37.13      60.89       
C           113.82      -35.91      61.05       
C           114.14      -35.62      62.51       
O           114.22      -35.2       60.18       
C           112.99      -37.77      59.58       
C           114.89      -34.5       62.94       
C           115.14      -33.1       62.35       
C           115.84      -32.35      63.31       
N           116.11      -33.2       64.4        
C           115.63      -34.52      64.28       
C           114.81      -32.43      61.14       
O           115.7       -35.4       65.14       
C           116.68      -32.8       65.61       
H           113.57      -36.72      65.29       
H           112.25      -39.63      61.56       
H           112.44      -38.87      65.69       
H           116.99      -30.59      63.8        
H           114.21      -32.8       60.25       
H           115.03      -30.62      60.05       
H           113.91      -37.94      59.08       
H           112.53      -38.73      59.72       
H           112.30142   -37.09576   59.07073    
H           115.95      -33.03      66.33       
H           117.68454   -33.19615   65.75856    
H           116.72      -31.7       65.55       
C           115.37      -31.15      60.94       
C           116.31      -31.06      63.12       
C           116.05      -30.43      61.91       
C           109.35      -46.67      63.95       
S           108.98      -45.25      62.96       
C           110.34      -46.35      64.87       
C           110.72      -44.96      64.84       
C           110.17      -44.24      63.8        
N           111.54      -44.03      65.63       
C           111.6       -42.84      64.91       
C           110.79      -42.98      63.74       
C           112.51      -44.35      66.72       
H           112.88      -43.43      67.18       
H           113.33      -44.97      66.42       
H           111.97985   -44.85225   67.52918    
H           112.58      -41.17      65.94       
H           110.52      -47.02      65.72       
C           112.14      -41.56      65.07       
S           110.84      -41.53      62.8        
C           111.94      -40.78      63.97       
C           102.69      -55.41      61.98       
C           103.42      -55.26      63.16       
C           103.15      -54.75      60.84       
C           104.08      -53.66      60.99       
C           104.73      -53.37      62.21       
C           104.3       -54.22      63.26       
N           104.51      -52.81      60.01       
C           105.51      -51.93      60.55       
C           105.67      -52.25      61.98       
O           106.17      -51.09      59.84       
C           103.87      -52.77      58.67       
C           106.67      -51.68      62.76       
C           107.32      -50.31      62.8        
C           108.18      -50.29      63.99       
N           108.2       -51.56      64.56       
C           107.32      -52.42      63.93       
C           107.08      -49.13      62.17       
O           107.07      -53.49      64.37       
C           109.45      -52.05      65.09       
H           104.68      -53.97      64.21       
H           102.67      -54.95      59.93       
H           103.25      -55.82      64.09       
H           109.75      -49.25      65.01       
H           106.4       -49.13      61.36       
H           107.62      -47.04      61.88       
H           104.33      -53.57      58.04       
H           102.83      -53.09      58.76       
H           103.80449   -51.75829   58.26968    
H           110.23      -51.37      64.94       
H           109.41379   -52.3397    66.14017    
H           109.57      -52.94      64.55       
C           107.78      -47.92      62.53       
C           108.93      -49.15      64.35       
C           108.74      -47.92      63.6        
C           96.5        -60.1       60.97       
S           97.33       -59.13      59.8        
C           97.04       -60.05      62.2        
C           98.16       -59.12      62.25       
C           98.48       -58.65      60.99       
N           99.14       -58.72      63.19       
C           99.98       -57.89      62.55       
C           99.67       -57.9       61.19       
C           99.14       -59.05      64.59       
H           99.6        -58.21      65.12       
H           99.77       -59.97      64.79       
H           98.13206    -59.01374   65.00333    
H           101.41      -56.93      63.94       
H           96.62       -60.67      63.0        
C           101.09      -57.05      62.96       
S           100.85      -56.82      60.4        
C           101.59      -56.37      61.93       
H           26.94       40.09       20.59       
H           95.51       -60.54      60.71       
