512

C           35.83       41.43       26.24       
C           34.8        41.61       27.14       
C           35.49       41.12       24.88       
C           34.15       41.22       24.43       
C           33.07       41.51       25.33       
C           33.47       41.69       26.67       
N           33.72       41.01       23.14       
C           32.35       41.24       23.12       
C           31.83       41.48       24.53       
O           31.7        41.01       22.06       
C           34.54       40.84       21.89       
C           30.45       41.61       24.86       
C           29.18       41.96       24.12       
C           28.11       42.13       25.0        
N           28.59       41.84       26.29       
C           29.95       41.46       26.33       
C           28.78       42.08       22.8        
O           30.49       41.17       27.41       
C           27.86       41.94       27.53       
H           32.72       41.94       27.39       
H           36.25       41.11       24.09       
H           35.04       41.9        28.17       
H           25.94       42.4        25.39       
H           29.53       42.0        21.99       
H           27.16       42.15       21.31       
H           35.53       40.66       22.18       
H           34.27       39.98       21.3        
H           34.55421    41.74246    21.27888    
H           26.87       41.43       27.42       
H           27.62499    42.98685    27.72228    
H           28.46       41.58       28.35       
C           27.45       42.31       22.39       
C           26.8        42.45       24.66       
C           26.45       42.56       23.32       
C           43.37       40.2        27.17       
S           42.35       40.66       25.84       
C           42.59       40.1        28.3        
C           41.25       40.49       28.12       
C           41.0        40.83       26.81       
N           40.05       40.59       28.81       
C           39.06       40.94       27.92       
C           39.61       41.01       26.63       
C           39.94       40.53       30.28       
H           38.98       40.86       30.62       
H           40.72       41.1        30.71       
H           40.10018    39.49611    30.5858     
H           37.14       41.16       28.88       
H           42.99       39.73       29.26       
C           37.68       41.26       27.99       
S           38.3        41.24       25.44       
C           37.14       41.36       26.68       
C           53.96       37.84       24.44       
C           53.52       37.28       25.61       
C           53.11       38.54       23.57       
C           51.77       38.65       23.92       
C           51.26       38.1        25.07       
C           52.17       37.43       25.94       
N           50.78       39.26       23.17       
C           49.58       39.25       23.82       
C           49.83       38.62       25.2        
O           48.53       39.55       23.28       
C           50.92       39.8        21.76       
C           48.81       38.6        26.22       
C           47.43       39.23       26.24       
C           46.83       38.67       27.42       
N           47.74       37.84       28.11       
C           48.99       37.88       27.58       
C           46.69       40.15       25.46       
O           49.96       37.35       28.03       
C           47.31       37.01       29.23       
H           51.85       37.13       26.88       
H           53.45       38.89       22.56       
H           54.24       36.82       26.27       
H           45.21       38.54       28.7        
H           47.09       40.7        24.58       
H           44.79       40.9        25.04       
H           51.93       39.8        21.39       
H           50.22       39.23       21.12       
H           50.59729    40.83827    21.68283    
H           46.75       37.52       29.95       
H           46.77449    36.14332    28.84246    
H           48.24       36.87       29.78       
C           45.35       40.34       25.77       
C           45.51       38.96       27.77       
C           44.76       39.84       26.95       
C           61.5        35.91       23.31       
S           60.07       34.9        23.47       
C           61.14       37.22       23.39       
C           59.76       37.45       23.52       
C           59.06       36.31       23.58       
N           58.93       38.63       23.64       
C           57.65       38.1        23.75       
C           57.68       36.7        23.74       
C           59.28       40.03       23.39       
H           58.55       40.76       23.71       
H           59.35       40.12       22.27       
H           60.20297    40.38552    23.84807    
H           56.04       39.58       23.66       
H           61.85       37.95       23.34       
C           56.34       38.6        23.94       
S           56.11       36.04       23.99       
C           55.4        37.64       24.07       
C           71.99       32.19       25.4        
C           70.87       31.32       25.45       
C           71.79       33.51       24.96       
C           70.55       33.96       24.7        
C           69.39       33.05       24.74       
C           69.63       31.72       25.08       
N           70.08       35.18       24.14       
C           68.7        35.28       24.19       
C           68.15       33.86       24.39       
O           68.23       36.39       24.17       
C           70.94       36.17       23.6        
C           66.78       33.63       24.27       
C           65.59       34.51       23.93       
C           64.43       33.61       23.97       
N           64.8        32.31       24.32       
C           66.2        32.21       24.46       
C           65.26       35.84       23.57       
O           66.74       31.11       24.54       
C           63.96       31.23       24.7        
H           68.82       30.99       25.23       
H           72.52       34.23       25.06       
H           71.05       30.26       25.62       
H           62.33       33.31       23.94       
H           65.99       36.67       23.64       
H           63.85       37.11       22.67       
H           71.03       37.1        24.16       
H           71.93       35.84       23.72       
H           70.8532     36.30744    22.52219    
H           64.45       30.24       24.56       
H           63.74542    31.30868    25.76577    
H           63.04       31.27       24.06       
C           64.0        36.15       23.09       
C           63.14       34.04       23.76       
C           62.88       35.37       23.37       
C           78.66       28.73       27.55       
S           77.0        28.17       27.57       
C           78.71       30.08       27.23       
C           77.41       30.59       26.88       
C           76.43       29.67       26.99       
N           76.95       31.75       26.3        
C           75.59       31.57       26.16       
C           75.19       30.26       26.58       
C           77.68       32.97       26.08       
H           77.04       33.82       25.86       
H           78.28       32.94       25.12       
H           78.31953    33.16848    26.94006    
H           74.57       33.28       25.2        
H           79.59       30.63       27.07       
C           74.5        32.35       25.68       
S           73.5        30.09       26.37       
C           73.29       31.74       25.82       
C           87.79       22.04       27.07       
C           87.89       23.32       27.58       
C           86.59       21.51       26.62       
C           85.45       22.38       26.68       
C           85.5        23.72       27.21       
C           86.75       24.15       27.64       
N           84.1        22.01       26.44       
C           83.34       23.15       26.44       
C           84.14       24.33       27.1        
O           82.23       23.14       26.11       
C           83.54       20.73       25.99       
C           83.52       25.56       27.47       
C           82.12       26.13       27.4        
C           82.18       27.46       27.96       
N           83.45       27.73       28.45       
C           84.35       26.77       28.0        
C           80.89       25.72       26.9        
O           85.52       26.95       28.07       
C           83.83       28.76       29.44       
H           86.98       25.15       28.03       
H           86.57       20.49       26.5        
H           88.86       23.69       27.84       
H           81.08       29.26       28.46       
H           80.8        24.9        26.27       
H           78.82       26.23       26.54       
H           84.16       19.93       26.34       
H           82.55       20.59       26.36       
H           83.48256    20.57205    24.91304    
H           83.01       29.49       29.66       
H           84.12004    28.26482    30.3667     
H           84.67       29.35       28.98       
C           79.76       26.59       26.99       
C           81.03       28.26       28.11       
C           79.79       27.84       27.59       
C           94.58       18.46       28.19       
S           94.08       20.13       28.45       
C           93.53       17.59       27.86       
C           92.34       18.34       27.66       
C           92.42       19.71       28.1        
N           91.03       18.06       27.41       
C           90.34       19.27       27.44       
C           91.17       20.31       27.88       
C           90.52       16.83       26.78       
H           89.49       16.91       26.53       
H           90.61       15.99       27.45       
H           91.15927    16.44363    25.98618    
H           88.2        19.25       26.73       
H           93.66       16.54       27.67       
C           89.08       19.79       27.07       
S           90.52       21.9        27.82       
C           89.0        21.2        27.28       
C           104.75      15.23       31.73       
C           104.49      16.57       31.38       
C           103.8       14.31       31.44       
C           102.53      14.69       31.01       
C           102.14      16.03       30.79       
C           103.24      16.95       30.94       
N           101.38      13.88       30.86       
C           100.3       14.56       30.36       
C           100.67      16.02       30.36       
O           99.31       13.99       30.03       
C           101.24      12.51       31.33       
C           99.82       17.06       29.91       
C           98.49       17.23       29.27       
C           98.12       18.54       29.22       
N           99.16       19.31       29.74       
C           100.16      18.52       30.21       
C           97.54       16.37       28.68       
O           101.03      18.99       30.94       
C           99.2        20.78       29.7        
H           103.14      17.93       30.56       
H           104.0       13.26       31.64       
H           105.22      17.32       31.49       
H           96.65       20.0        29.13       
H           97.89       15.37       28.67       
H           95.72       16.15       27.63       
H           100.28      12.26       31.79       
H           102.02      12.32       32.07       
H           101.31738   11.79953    30.50699    
H           99.86       21.1        30.45       
H           99.32167    21.17363    28.69087    
H           98.36       21.23       30.17       
C           96.35       16.83       28.14       
C           96.87       18.95       28.91       
C           95.91       18.05       28.5        
C           111.2       12.99       35.61       
S           109.98      12.01       34.85       
C           110.98      14.31       35.48       
C           109.86      14.57       34.61       
C           109.11      13.4        34.33       
N           109.24      15.64       34.02       
C           108.11      15.21       33.4        
C           107.98      13.79       33.63       
C           109.7       17.03       33.96       
H           108.88      17.68       33.56       
H           109.9       17.39       34.97       
H           110.63666   17.06521    33.40364    
H           107.07      16.72       32.19       
H           111.63      15.09       35.87       
C           107.04      15.74       32.6        
S           106.39      13.26       33.0        
C           106.06      14.87       32.41       
C           119.29      7.58        41.34       
C           119.27      8.96        41.37       
C           118.45      6.88        40.48       
C           117.62      7.61        39.66       
C           117.43      9.05        39.81       
C           118.31      9.67        40.66       
N           116.66      7.11        38.8        
C           115.87      8.08        38.31       
C           116.28      9.44        38.88       
O           115.03      7.79        37.43       
C           116.84      5.82        38.1        
C           115.62      10.65       38.54       
C           114.41      10.93       37.72       
C           114.11      12.31       37.77       
N           115.04      12.94       38.61       
C           115.98      12.08       39.1        
C           113.52      10.26       36.79       
O           116.91      12.48       39.77       
C           115.34      14.36       38.59       
H           118.19      10.72       40.88       
H           118.57      5.78        40.36       
H           119.83      9.48        42.12       
H           112.73      13.91       37.53       
H           113.63      9.26        36.57       
H           111.77      10.39       35.45       
H           117.84      5.44        38.05       
H           116.69      6.08        37.07       
H           116.12445   5.07005     38.43713    
H           115.78      14.75       39.51       
H           115.91175   14.70587    37.72885    
H           114.35      14.84       38.72       
C           112.45      10.91       36.13       
C           113.01      12.92       37.18       
C           112.23      12.24       36.3        
C           123.25      2.06        45.22       
S           121.54      2.27        44.71       
C           124.05      3.13        44.65       
C           123.26      4.16        43.99       
C           121.9       3.8         44.06       
N           123.41      5.39        43.36       
C           122.14      5.84        42.98       
C           121.28      4.87        43.37       
C           124.66      6.1         43.25       
H           124.48      7.14        42.98       
H           125.14      6.11        44.19       
H           125.22943   5.64863     42.43753    
H           122.16      7.79        41.94       
H           125.16      3.11        44.7        
C           121.54      6.94        42.29       
S           119.69      5.25        42.74       
C           120.19      6.8         42.1        
C           126.13      -7.45       50.3        
C           127.09      -6.4        50.28       
C           125.18      -7.53       49.31       
C           125.07      -6.41       48.5        
C           125.82      -5.23       48.57       
C           126.91      -5.34       49.41       
N           124.06      -6.31       47.56       
C           124.16      -5.06       46.92       
C           125.21      -4.22       47.69       
O           123.42      -4.68       46.05       
C           123.16      -7.36       47.15       
C           125.47      -2.91       47.38       
C           124.72      -1.82       46.7        
C           125.44      -0.61       46.73       
N           126.68      -0.89       47.33       
C           126.72      -2.21       47.76       
C           123.36      -1.68       46.21       
O           127.69      -2.6        48.35       
C           127.65      0.06        47.79       
H           127.51      -4.44       49.62       
H           124.57      -8.38       49.15       
H           127.8       -6.36       51.13       
H           125.59      1.41        46.43       
H           122.81      -2.54       46.01       
H           121.9       -0.46       45.25       
H           122.42      -7.04       46.35       
H           122.54      -7.62       48.1        
H           123.70571   -8.13959    46.61846    
H           128.53      -0.37       48.32       
H           128.13922   0.57049     46.96045    
H           127.22      0.64        48.59       
C           122.93      -0.43       45.69       
C           124.96      0.59        46.29       
C           123.72      0.8         45.75       
C           124.99      -13.15      55.48       
S           124.47      -13.01      53.85       
C           125.71      -12.11      55.94       
C           125.96      -11.14      54.94       
C           125.23      -11.4       53.74       
N           126.53      -9.88       54.83       
C           126.35      -9.44       53.49       
C           125.43      -10.29      52.91       
C           127.18      -9.07       55.85       
H           127.36      -8.12       55.51       
H           128.12      -9.48       56.05       
H           126.58224   -9.04813    56.76121    
H           127.48      -7.64       53.12       
H           126.02      -12.05      56.99       
C           126.85      -8.39       52.7        
S           125.07      -9.68       51.28       
C           126.21      -8.4        51.45       
C           120.13      -21.5       61.37       
C           120.96      -20.52      62.01       
C           119.89      -21.34      60.01       
C           120.59      -20.44      59.23       
C           121.62      -19.66      59.89       
C           121.71      -19.61      61.3        
N           120.51      -20.32      57.87       
C           121.4       -19.32      57.47       
C           122.12      -18.87      58.71       
O           121.51      -19.06      56.31       
C           119.58      -21.06      57.03       
C           122.99      -17.77      58.71       
C           123.3       -16.67      57.67       
C           124.22      -15.71      58.27       
N           124.54      -16.11      59.54       
C           123.86      -17.21      59.9        
C           122.82      -16.19      56.49       
O           124.02      -17.61      61.08       
C           125.01      -15.14      60.56       
H           122.28      -18.91      61.87       
H           119.18      -22.04      59.46       
H           121.02      -20.42      63.11       
H           125.58      -14.13      58.12       
H           122.06      -16.73      55.95       
H           122.9       -14.89      54.87       
H           119.06      -20.33      56.38       
H           118.74      -21.4       57.59       
H           120.09044   -21.8767    56.51956    
H           124.73      -14.12      60.41       
H           126.09352   -15.05611   60.64389    
H           124.55      -15.37      61.52       
C           123.38      -15.08      55.79       
C           124.81      -14.62      57.62       
C           124.44      -14.28      56.3        
C           116.67      -27.83      63.98       
S           116.86      -27.28      62.35       
C           117.14      -27.02      64.97       
C           117.74      -25.87      64.4        
C           117.67      -25.87      63.01       
N           118.4       -24.74      64.85       
C           118.64      -24.0       63.73       
C           118.23      -24.68      62.6        
C           118.35      -24.17      66.24       
H           118.82      -23.14      66.24       
H           118.98      -24.71      66.99       
H           117.30458   -24.08524   66.53667    
H           119.91      -22.22      64.04       
H           117.2       -27.24      65.96       
C           119.26      -22.83      63.39       
S           118.55      -23.78      61.16       
C           119.37      -22.58      62.08       
C           113.04      -38.5       63.47       
C           112.28      -37.44      64.02       
C           114.23      -38.07      62.84       
C           114.68      -36.77      63.09       
C           113.98      -35.83      63.81       
C           112.74      -36.19      64.25       
N           115.9       -36.2       62.68       
C           115.94      -34.86      62.92       
C           114.78      -34.53      63.76       
O           116.94      -34.23      62.63       
C           116.85      -36.92      61.93       
C           114.68      -33.29      64.42       
C           115.23      -31.91      64.04       
C           114.9       -30.98      65.12       
N           114.04      -31.63      65.99       
C           113.7       -32.88      65.58       
C           116.1       -31.43      63.05       
O           113.1       -33.66      66.27       
C           113.2       -31.03      66.95       
H           112.12      -35.48      64.63       
H           114.79      -38.78      62.23       
H           111.22      -37.62      64.29       
H           115.34      -29.16      66.01       
H           116.35      -32.12      62.29       
H           117.03      -29.77      62.1        
H           117.85      -36.62      62.17       
H           116.94      -38.0       62.28       
H           116.59562   -36.92      60.8701     
H           112.23      -31.51      67.16       
H           113.69093   -30.87347   67.91051    
H           112.86      -30.09      66.57       
C           116.57      -30.11      63.05       
C           115.48      -29.7       65.09       
C           116.28      -29.21      64.06       
C           111.27      -45.81      61.93       
S           112.31      -44.72      61.1        
C           110.8       -45.35      63.06       
C           111.11      -43.93      63.24       
C           111.9       -43.46      62.23       
N           110.88      -42.89      64.18       
C           111.53      -41.82      63.66       
C           112.18      -42.09      62.48       
C           110.02      -42.94      65.33       
H           110.23      -42.02      65.98       
H           110.26      -43.82      65.93       
H           108.97275   -43.04614   65.04696    
H           111.27      -39.95      64.97       
H           110.14      -45.9       63.64       
C           111.71      -40.46      64.09       
S           113.08      -40.73      61.92       
C           112.43      -39.76      63.24       
C           109.48      -55.22      56.43       
C           108.99      -55.12      57.72       
C           110.56      -54.39      56.03       
C           110.99      -53.44      56.95       
C           110.39      -53.22      58.23       
C           109.42      -54.14      58.57       
N           111.97      -52.49      56.79       
C           111.96      -51.57      57.75       
C           110.95      -52.05      58.82       
O           112.7       -50.6       57.73       
C           112.94      -52.52      55.64       
C           110.77      -51.18      59.9        
C           111.03      -49.74      60.15       
C           110.65      -49.5       61.53       
N           110.19      -50.67      62.12       
C           110.22      -51.71      61.26       
C           111.45      -48.59      59.46       
O           109.71      -52.76      61.57       
C           109.45      -50.82      63.38       
H           108.93      -53.99      59.52       
H           111.01      -54.47      55.04       
H           108.2       -55.75      58.01       
H           110.37      -48.22      63.18       
H           111.65      -48.69      58.44       
H           112.03      -46.57      59.44       
H           113.9       -52.34      55.94       
H           112.97      -53.53      55.2        
H           112.60195   -51.80869   54.88643    
H           108.43      -51.2       63.14       
H           109.94821   -51.33957   64.19849    
H           109.27      -49.82      63.72       
C           111.62      -47.4       60.13       
C           110.67      -48.29      62.16       
C           111.22      -47.16      61.45       
C           104.7       -59.12      51.85       
S           104.65      -58.79      53.61       
C           105.93      -58.8       51.33       
C           106.74      -58.07      52.27       
C           106.23      -58.07      53.51       
N           108.04      -57.65      52.26       
C           108.24      -57.22      53.55       
C           107.17      -57.53      54.33       
C           109.07      -57.51      51.14       
H           109.99      -57.17      51.66       
H           108.82      -56.72      50.47       
H           109.14042   -58.32685   50.42174    
H           110.12      -56.05      53.72       
H           106.24      -59.04      50.29       
C           109.28      -56.48      54.19       
S           107.5       -57.02      55.93       
C           108.95      -56.17      55.45       
H           25.53       43.03       23.08       
H           103.94      -59.83      51.42       
