512

C           33.33       13.21       32.84       
C           32.93       11.93       33.05       
C           32.43       14.07       32.15       
C           31.3        13.53       31.56       
C           30.84       12.23       31.83       
C           31.76       11.43       32.57       
N           30.36       14.17       30.79       
C           29.33       13.34       30.39       
C           29.54       12.09       31.2        
O           28.35       13.79       29.78       
C           30.11       15.62       30.99       
C           28.58       10.98       31.28       
C           27.43       10.52       30.47       
C           26.74       9.48        31.17       
N           27.44       9.19        32.34       
C           28.56       9.94        32.38       
C           26.83       11.02       29.33       
O           29.31       9.87        33.34       
C           27.24       8.03        33.23       
H           31.5        10.43       32.76       
H           32.75       15.14       32.09       
H           33.55       11.21       33.69       
H           25.0        8.15        31.31       
H           27.3        11.84       28.8        
H           25.26       10.77       27.87       
H           31.0        16.12       31.27       
H           29.82       16.11       30.1        
H           29.28597    15.77628    31.68617    
H           26.94       7.29        32.68       
H           26.40235    8.16961     33.91334    
H           28.17       7.79        33.8        
C           25.7        10.4        28.81       
C           25.54       8.94        30.76       
C           25.03       9.44        29.61       
C           39.99       14.93       36.47       
S           39.25       13.4        35.89       
C           39.1        16.0        36.34       
C           37.85       15.58       35.77       
C           37.79       14.21       35.45       
N           36.69       16.16       35.25       
C           35.96       15.18       34.62       
C           36.65       13.98       34.73       
C           36.29       17.56       35.29       
H           35.22       17.58       35.1        
H           36.71       18.16       34.5        
H           36.60229    18.02134    36.22688    
H           33.98       15.79       33.7        
H           39.43       16.99       36.56       
C           34.73       15.0        33.96       
S           35.87       12.68       33.91       
C           34.47       13.71       33.56       
C           50.44       15.65       40.6        
C           50.07       14.69       39.69       
C           49.36       16.22       41.3        
C           48.03       15.99       40.9        
C           47.73       15.17       39.8        
C           48.82       14.45       39.31       
N           46.94       16.76       41.27       
C           45.81       16.31       40.58       
C           46.27       15.3        39.55       
O           44.68       16.74       40.85       
C           46.89       17.77       42.34       
C           45.38       14.66       38.7        
C           44.08       15.01       38.21       
C           43.55       14.05       37.31       
N           44.6        13.09       37.08       
C           45.73       13.52       37.73       
C           43.13       16.04       38.35       
O           46.76       12.94       37.75       
C           44.65       12.01       36.19       
H           48.64       13.84       38.46       
H           49.59       16.91       42.09       
H           50.8        14.09       39.15       
H           42.02       13.28       36.01       
H           43.32       16.84       39.02       
H           41.19       16.74       38.19       
H           47.83       17.75       42.94       
H           46.9        18.77       41.99       
H           46.12158    17.60081    43.09432    
H           43.71       11.46       36.32       
H           44.71502    12.27729    35.13528    
H           45.47       11.3        36.44       
C           41.83       15.92       37.93       
C           42.29       14.04       36.65       
C           41.35       14.96       37.04       
C           57.66       18.09       42.24       
S           56.13       18.96       42.27       
C           57.46       16.74       42.07       
C           56.18       16.34       41.75       
C           55.29       17.44       41.75       
N           55.47       15.17       41.56       
C           54.13       15.58       41.32       
C           53.99       16.98       41.43       
C           55.97       13.8        41.44       
H           55.25       13.18       40.88       
H           56.2        13.42       42.43       
H           56.94952    13.84969    40.96443    
H           52.81       13.93       40.97       
H           58.3        16.03       42.12       
C           52.89       15.01       41.04       
S           52.33       17.56       41.2        
C           51.83       15.92       40.9        
C           67.32       23.17       44.89       
C           67.24       22.21       43.85       
C           66.16       23.46       45.65       
C           64.95       22.83       45.35       
C           64.86       21.88       44.27       
C           66.03       21.63       43.54       
N           63.71       22.96       46.05       
C           62.78       22.01       45.56       
C           63.45       21.29       44.39       
O           61.72       21.83       46.18       
C           63.37       23.87       47.12       
C           62.8        20.25       43.7        
C           61.36       19.97       43.46       
C           61.38       18.81       42.7        
N           62.63       18.29       42.41       
C           63.55       19.1        43.08       
C           60.1        20.57       43.78       
O           64.76       18.84       43.12       
C           62.93       16.9        41.9        
H           66.02       20.87       42.84       
H           66.19       24.11       46.53       
H           68.16       21.92       43.37       
H           60.19       17.35       41.63       
H           60.12       21.53       44.22       
H           57.99       20.35       43.59       
H           63.17       23.38       48.08       
H           64.23       24.48       47.34       
H           62.53859    24.5279     46.86696    
H           62.28       16.22       42.31       
H           62.89444    16.85021    40.81172    
H           63.96       16.67       42.25       
C           58.94       19.95       43.31       
C           60.19       18.29       42.21       
C           58.9        18.77       42.59       
C           73.67       27.0        47.31       
S           72.06       26.87       48.01       
C           73.71       26.39       46.03       
C           72.48       25.82       45.62       
C           71.47       25.97       46.58       
N           72.05       25.04       44.57       
C           70.68       24.69       44.91       
C           70.31       25.31       46.09       
C           72.75       24.74       43.33       
H           72.0        24.47       42.54       
H           73.53       23.94       43.35       
H           73.12115    25.64646    42.85179    
H           69.71       23.33       43.42       
H           74.59       26.44       45.43       
C           69.64       23.9        44.36       
S           68.69       24.92       46.6        
C           68.55       23.86       45.21       
C           80.73       30.32       54.58       
C           79.53       30.91       54.42       
C           81.4        29.75       53.46       
C           80.64       29.62       52.28       
C           79.26       30.1        52.17       
C           78.79       30.73       53.29       
N           80.96       29.0        51.05       
C           79.88       29.0        50.21       
C           78.76       29.7        50.9        
O           79.94       28.57       49.14       
C           82.26       28.46       50.76       
C           77.51       29.84       50.35       
C           76.7        29.0        49.39       
C           75.42       29.57       49.22       
N           75.4        30.76       50.0        
C           76.54       31.01       50.67       
C           76.98       27.8        48.71       
O           76.76       32.09       51.31       
C           74.52       31.85       49.68       
H           77.81       31.06       53.34       
H           82.4        29.31       53.51       
H           79.02       31.38       55.27       
H           73.52       29.45       48.31       
H           77.95       27.38       48.69       
H           76.12       26.16       47.46       
H           82.54       28.71       49.79       
H           83.02       28.87       51.36       
H           82.2672     27.37959    50.90406    
H           74.24       31.73       48.63       
H           73.58317    31.82182    50.23646    
H           74.96       32.85       49.82       
C           75.95       27.14       47.98       
C           74.44       28.98       48.41       
C           74.68       27.77       47.9        
C           85.04       30.09       61.05       
S           85.28       29.35       59.47       
C           83.79       30.54       61.26       
C           83.04       30.41       60.02       
C           83.72       29.82       58.93       
N           81.75       30.7        59.5        
C           81.68       30.43       58.17       
C           82.9        29.89       57.77       
C           80.72       31.38       60.25       
H           79.99       31.55       59.5        
H           81.08       32.36       60.56       
H           80.43633    30.74175    61.08682    
H           79.73       31.0        57.11       
H           83.45       31.01       62.18       
C           80.76       30.65       57.07       
S           82.94       29.63       56.07       
C           81.31       30.2        55.86       
C           94.41       31.33       67.05       
C           94.34       30.61       65.87       
C           93.18       31.67       67.67       
C           91.99       31.32       67.06       
C           91.92       30.54       65.88       
C           93.15       30.18       65.29       
N           90.73       31.67       67.48       
C           89.75       31.23       66.59       
C           90.45       30.47       65.52       
O           88.63       31.58       66.77       
C           90.46       32.25       68.79       
C           89.78       29.96       64.35       
C           88.46       30.17       63.76       
C           88.28       29.26       62.77       
N           89.43       28.4        62.74       
C           90.41       28.84       63.57       
C           87.34       30.98       63.99       
O           91.44       28.19       63.86       
C           89.71       27.41       61.7        
H           93.16       29.69       64.33       
H           93.2        32.28       68.58       
H           95.22       30.31       65.3        
H           87.22       28.53       61.08       
H           87.25       31.57       64.85       
H           85.42       31.62       63.37       
H           89.58       32.86       68.74       
H           91.25       32.91       69.12       
H           90.36187    31.47194    69.54703    
H           88.78       26.93       61.45       
H           90.34763    27.81383    60.91359    
H           90.26       26.62       62.15       
C           86.23       30.91       63.17       
C           87.19       29.22       61.91       
C           86.16       30.08       62.05       
C           101.46      31.89       70.01       
S           101.04      31.43       68.34       
C           100.49      32.57       70.67       
C           99.29       32.41       70.02       
C           99.38       31.87       68.71       
N           98.0        32.73       70.3        
C           97.31       32.22       69.22       
C           98.03       31.74       68.22       
C           97.44       33.63       71.28       
H           98.22       34.32       71.56       
H           96.54       34.2        71.0        
H           97.05342    33.09308    72.14624    
H           95.14       32.46       69.62       
H           100.7       32.98       71.71       
C           95.91       32.18       68.89       
S           97.13       31.27       66.78       
C           95.65       31.57       67.67       
C           110.55      26.73       73.9        
C           110.7       27.58       72.75       
C           109.28      26.75       74.48       
C           108.29      27.56       73.97       
C           108.39      28.35       72.83       
C           109.66      28.44       72.3        
N           107.02      27.57       74.58       
C           106.23      28.45       73.87       
C           107.01      28.96       72.62       
O           105.02      28.59       74.08       
C           106.61      26.89       75.8        
C           106.54      29.66       71.57       
C           105.21      30.36       71.41       
C           105.1       30.75       70.05       
N           106.31      30.47       69.36       
C           107.16      29.77       70.22       
C           104.1       30.65       72.23       
O           108.27      29.32       69.9        
C           106.78      31.3        68.31       
H           109.91      29.17       71.49       
H           109.05      26.08       75.3        
H           111.55      27.55       72.16       
H           103.81      31.48       68.44       
H           104.08      30.48       73.33       
H           102.02      31.15       72.36       
H           105.9       27.51       76.29       
H           107.45      26.78       76.43       
H           106.17868   25.89518    75.68869    
H           106.07      31.53       67.58       
H           107.03572   32.27317    68.7291     
H           107.72      30.84       67.96       
C           102.92      31.22       71.74       
C           103.88      31.27       69.51       
C           102.81      31.49       70.39       
C           114.91      20.95       76.64       
S           113.51      21.74       77.34       
C           115.26      21.49       75.45       
C           114.48      22.61       75.17       
C           113.43      22.92       76.09       
N           114.51      23.51       74.13       
C           113.36      24.35       74.37       
C           112.7       24.0        75.6        
C           115.1       23.18       72.82       
H           115.21      22.03       72.67       
H           114.43      23.59       71.94       
H           116.12041   23.53971    72.68786    
H           112.9       25.8        72.72       
H           116.0       21.13       74.85       
C           112.67      25.41       73.76       
S           111.34      24.95       75.92       
C           111.6       25.87       74.43       
C           119.24      11.89       81.1        
C           117.88      12.13       80.98       
C           120.05      13.05       81.11       
C           119.51      14.32       80.77       
C           118.13      14.54       80.57       
C           117.35      13.39       80.69       
N           120.21      15.48       80.53       
C           119.36      16.47       80.09       
C           117.96      15.97       80.2        
O           119.72      17.66       80.04       
C           121.65      15.77       80.64       
C           116.83      16.71       79.9        
C           116.61      17.83       78.96       
C           115.26      18.21       79.02       
N           114.64      17.45       80.04       
C           115.49      16.51       80.56       
C           117.4       18.43       77.97       
O           115.2       15.7        81.48       
C           113.58      17.96       80.91       
H           116.33      13.46       80.56       
H           121.05      13.07       81.45       
H           117.17      11.3        81.24       
H           113.74      19.49       78.49       
H           118.43      18.18       77.95       
H           117.54      20.05       76.55       
H           122.05      15.17       81.39       
H           121.92      16.81       80.95       
H           122.19422   15.48394    79.73995    
H           113.07      17.03       81.31       
H           113.91486   18.55297    81.76109    
H           112.83      18.55       80.32       
C           116.88      19.53       77.26       
C           114.76      19.21       78.29       
C           115.53      19.78       77.35       
C           120.83      4.57        83.41       
S           120.11      5.18        81.92       
C           121.44      5.56        84.15       
C           121.23      6.84        83.6        
C           120.38      6.8         82.47       
N           121.44      8.23        83.91       
C           120.7       8.97        82.98       
C           120.05      8.13        82.1        
C           122.0       8.68        85.17       
H           121.86      9.79        85.18       
H           123.08      8.53        85.1        
H           121.63378   8.1518      86.05033    
H           121.15      11.08       83.23       
H           122.11      5.35        84.91       
C           120.51      10.36       82.74       
S           119.11      9.1         80.93       
C           119.65      10.61       81.61       
C           116.18      -4.7        86.32       
C           116.71      -3.82       87.31       
C           116.61      -4.53       85.03       
C           117.59      -3.57       84.7        
C           118.08      -2.67       85.66       
C           117.68      -2.86       87.01       
N           118.2       -3.31       83.43       
C           119.03      -2.26       83.47       
C           118.93      -1.76       84.9        
O           119.71      -1.95       82.5        
C           118.14      -4.2        82.28       
C           119.52      -0.58       85.27       
C           120.03      0.57        84.51       
C           120.59      1.53        85.32       
N           120.65      1.04        86.62       
C           119.89      -0.13       86.73       
C           119.87      0.99        83.21       
O           119.74      -0.65       87.79       
C           120.99      1.89        87.82       
H           118.14      -2.32       87.83       
H           116.3       -5.2        84.26       
H           116.39      -3.88       88.38       
H           121.42      3.35        85.72       
H           119.42      0.44        82.45       
H           119.98      2.56        81.73       
H           118.49      -3.57       81.47       
H           116.99      -4.29       82.1        
H           118.59523   -5.1735     82.46209    
H           120.63      2.92        87.63       
H           122.02044   1.75681     88.14946    
H           120.27      1.52        88.57       
C           120.27      2.31        82.76       
C           121.0       2.76        84.96       
C           120.73      3.19        83.7        
C           109.99      -9.23       87.91       
S           110.68      -8.72       86.4        
C           110.67      -8.74       89.0        
C           111.78      -7.98       88.58       
C           111.97      -7.82       87.21       
N           112.75      -7.24       89.28       
C           113.63      -6.63       88.31       
C           113.12      -7.03       87.02       
C           112.69      -6.73       90.61       
H           113.72      -6.74       90.97       
H           112.1       -7.36       91.29       
H           112.19198   -5.76052    90.62328    
H           115.31      -5.46       88.97       
H           110.33      -8.95       90.04       
C           114.78      -5.85       88.13       
S           114.16      -6.5        85.71       
C           115.2       -5.72       86.82       
C           100.81      -15.95      88.15       
C           101.84      -16.07      87.2        
C           100.79      -14.8       88.95       
C           101.83      -13.85      88.86       
C           102.94      -13.99      87.96       
C           102.82      -15.08      87.05       
N           101.98      -12.7       89.57       
C           103.16      -12.06      89.19       
C           103.85      -12.79      88.12       
O           103.6       -11.09      89.76       
C           100.84      -12.16      90.27       
C           105.05      -12.36      87.48       
C           106.19      -11.47      87.79       
C           107.24      -11.59      86.79       
N           106.82      -12.58      85.89       
C           105.6       -13.05      86.18       
C           106.54      -10.65      88.81       
O           105.02      -13.85      85.48       
C           107.55      -13.0       84.72       
H           103.64      -15.23      86.35       
H           99.83       -14.62      89.43       
H           101.94      -16.82      86.44       
H           109.19      -11.0       86.01       
H           105.88      -10.59      89.65       
H           107.84      -9.28       89.71       
H           99.91       -12.48      89.75       
H           100.81      -12.61      91.23       
H           100.84      -11.07563   90.38065    
H           107.49      -14.07      84.65       
H           107.2504    -12.44957   83.82817    
H           108.58      -12.81      85.03       
C           107.79      -9.97       88.86       
C           108.42      -10.91      86.79       
C           108.74      -10.03      87.83       
C           94.33       -20.32      87.35       
S           94.67       -19.18      88.59       
C           95.33       -20.45      86.45       
C           96.41       -19.6       86.75       
C           96.23       -18.92      87.95       
N           97.59       -19.2       86.14       
C           98.22       -18.45      87.08       
C           97.39       -18.08      88.15       
C           98.1        -19.78      84.89       
H           98.84       -19.02      84.57       
H           97.41       -19.65      84.06       
H           98.58008    -20.75427   84.98178    
H           100.24      -17.89      86.18       
H           95.23       -21.04      85.58       
C           99.52       -17.74      87.01       
S           98.24       -16.82      89.0        
C           99.7        -16.88      88.04       
C           85.51       -27.13      86.22       
C           85.9        -26.29      85.2        
C           86.26       -27.1       87.38       
C           87.4        -26.28      87.45       
C           87.85       -25.4       86.44       
C           87.02       -25.42      85.3        
N           88.21       -26.15      88.57       
C           89.18       -25.21      88.35       
C           89.0        -24.63      86.96       
O           90.18       -25.23      89.04       
C           87.97       -26.57      89.89       
C           89.93       -23.75      86.41       
C           90.95       -22.85      87.05       
C           91.53       -22.18      85.94       
N           91.02       -22.59      84.7        
C           89.97       -23.44      84.94       
C           91.39       -22.52      88.35       
O           89.41       -23.98      84.05       
C           91.26       -22.07      83.37       
H           87.27       -24.78      84.53       
H           86.11       -27.76      88.23       
H           85.27       -26.2       84.29       
H           93.03       -20.77      85.31       
H           90.99       -22.99      89.22       
H           92.74       -21.28      89.51       
H           87.34       -27.45      89.78       
H           88.85       -26.98      90.39       
H           87.52       -25.80847   90.52692    
H           90.49       -22.51      82.7        
H           91.06749    -21.0043    83.24624    
H           92.26       -22.45      83.09       
C           92.38       -21.54      88.51       
C           92.52       -21.22      86.14       
C           93.01       -20.92      87.41       
C           78.98       -31.13      84.83       
S           80.15       -30.54      83.75       
C           79.13       -30.6       86.07       
C           80.36       -29.81      86.18       
C           81.12       -29.78      84.99       
N           81.12       -29.15      87.2        
C           82.3        -28.72      86.63       
C           82.32       -29.0       85.29       
C           80.63       -28.66      88.48       
H           81.49       -28.19      88.94       
H           80.28       -29.49      89.1        
H           79.82569    -27.9389    88.33439    
H           83.78       -27.65      88.04       
H           78.45       -30.91      86.84       
C           83.43       -28.0       87.1        
S           83.63       -28.33      84.5        
C           84.29       -27.85      86.04       
H           23.95       9.28        29.47       
H           78.21       -31.87      84.62       
