512

C           34.1        42.68       20.15       
C           33.47       43.41       19.15       
C           33.4        42.28       21.34       
C           32.06       42.47       21.4        
C           31.34       43.12       20.36       
C           32.09       43.62       19.28       
N           31.11       41.91       22.28       
C           29.82       42.31       21.95       
C           29.92       43.04       20.64       
O           28.85       42.08       22.61       
C           31.27       40.79       23.14       
C           28.8        43.61       20.09       
C           27.3        43.32       20.17       
C           26.65       44.2        19.31       
N           27.6        44.93       18.6        
C           28.86       44.7        19.07       
C           26.5        42.33       20.76       
O           29.79       45.35       18.76       
C           27.36       45.74       17.46       
H           31.64       44.07       18.38       
H           33.98       41.68       22.06       
H           34.08       43.81       18.35       
H           24.84       45.02       18.52       
H           26.91       41.56       21.46       
H           24.64       41.59       21.15       
H           32.27       40.82       23.51       
H           30.66       40.87       24.03       
H           30.97096    39.85811    22.66015    
H           26.57       46.43       17.76       
H           27.00376    45.19852    16.58365    
H           28.3        46.17       17.21       
C           25.16       42.33       20.59       
C           25.26       44.23       19.14       
C           24.44       43.29       19.84       
C           41.69       41.01       20.66       
S           40.29       40.1        20.96       
C           41.41       42.29       20.3        
C           39.97       42.57       20.3        
C           39.19       41.43       20.6        
N           39.11       43.56       19.98       
C           37.82       43.03       20.15       
C           37.9        41.79       20.55       
C           39.31       45.01       20.13       
H           38.37       45.42       20.49       
H           39.46       45.5        19.12       
H           40.14364    45.23417    20.79551    
H           36.26       44.55       19.77       
H           42.1        43.07       20.04       
C           36.48       43.46       19.93       
S           36.33       41.01       20.79       
C           35.59       42.48       20.12       
C           51.02       34.95       20.77       
C           51.11       36.34       20.86       
C           49.84       34.38       20.43       
C           48.72       35.18       20.29       
C           48.71       36.61       20.49       
C           49.98       37.09       20.82       
N           47.45       34.73       19.95       
C           46.56       35.76       19.98       
C           47.34       37.09       20.37       
O           45.35       35.59       19.72       
C           47.24       33.51       19.15       
C           46.72       38.3        20.59       
C           45.36       38.85       20.4        
C           45.36       40.17       20.87       
N           46.59       40.58       21.37       
C           47.52       39.54       21.19       
C           44.12       38.31       20.0        
O           48.63       39.68       21.53       
C           46.97       41.8        22.0        
H           50.1        38.1        21.01       
H           49.75       33.25       20.27       
H           52.04       36.81       21.12       
H           44.1        42.03       21.1        
H           44.06       37.33       19.48       
H           42.04       38.64       19.6        
H           48.0        32.75       19.28       
H           46.3        33.1        19.45       
H           47.21112    33.68328    18.07425    
H           46.56       42.7        21.49       
H           46.7297     41.80728    23.06316    
H           48.02       41.87       21.91       
C           42.96       39.0        20.07       
C           44.14       40.95       20.94       
C           42.95       40.3        20.65       
C           57.55       31.31       23.32       
S           57.26       33.01       23.18       
C           56.42       30.54       23.09       
C           55.35       31.36       22.66       
C           55.64       32.74       22.59       
N           53.99       31.13       22.24       
C           53.55       32.35       21.85       
C           54.48       33.35       22.02       
C           53.14       29.96       22.49       
H           52.2        30.1        22.14       
H           53.03       29.73       23.57       
H           53.53573    29.0822     21.97915    
H           51.45       32.18       21.2        
H           56.51       29.47       23.01       
C           52.28       32.83       21.32       
S           53.76       34.88       21.57       
C           52.24       34.16       21.08       
C           68.27       27.61       23.23       
C           67.3        26.65       23.48       
C           67.88       28.93       22.93       
C           66.56       29.31       23.07       
C           65.51       28.36       23.27       
C           65.96       27.01       23.45       
N           66.02       30.59       23.07       
C           64.67       30.58       23.2        
C           64.21       29.16       23.25       
O           64.07       31.56       23.36       
C           66.81       31.78       22.83       
C           62.81       28.93       23.44       
C           61.6        29.75       23.27       
C           60.47       29.06       23.79       
N           60.9        27.75       24.19       
C           62.27       27.58       24.02       
C           61.25       30.97       22.69       
O           62.95       26.58       24.16       
C           60.02       26.52       24.53       
H           65.23       26.21       23.58       
H           68.63       29.66       22.85       
H           67.46       25.59       23.65       
H           58.42       28.97       24.41       
H           62.0        31.48       22.17       
H           59.74       32.46       22.26       
H           66.84       32.38       23.72       
H           67.86       31.51       22.58       
H           66.4083     32.32304    21.97452    
H           60.39       25.62       24.07       
H           59.93596    26.38693    25.60858    
H           59.09       26.71       24.08       
C           59.96       31.53       22.77       
C           59.19       29.54       23.91       
C           58.94       30.86       23.39       
C           75.76       24.97       22.82       
S           74.24       24.16       22.82       
C           75.56       26.33       23.07       
C           74.16       26.67       23.23       
C           73.29       25.6        23.17       
N           73.38       27.89       23.34       
C           72.0        27.49       23.46       
C           71.97       26.12       23.23       
C           73.83       29.25       23.2        
H           72.99       29.92       23.37       
H           74.17       29.46       22.2        
H           74.61807    29.52224    23.90209    
H           70.55       29.18       23.75       
H           76.43       27.03       23.11       
C           70.72       28.12       23.62       
S           70.3        25.6        23.21       
C           69.72       27.26       23.4        
C           84.57       18.0        22.83       
C           84.7        19.31       23.28       
C           83.31       17.68       22.36       
C           82.27       18.58       22.32       
C           82.46       19.96       22.76       
C           83.75       20.27       23.22       
N           81.0        18.39       21.91       
C           80.32       19.55       22.0        
C           81.09       20.59       22.71       
O           79.11       19.55       21.63       
C           80.35       17.09       21.78       
C           80.58       21.88       23.05       
C           79.23       22.5        22.98       
C           79.36       23.87       23.37       
N           80.71       24.14       23.68       
C           81.47       22.97       23.58       
C           77.95       22.01       22.73       
O           82.64       23.05       23.9        
C           81.14       25.44       24.05       
H           84.03       21.26       23.63       
H           83.21       16.67       21.86       
H           85.66       19.62       23.59       
H           78.36       25.66       23.64       
H           77.8        20.95       22.77       
H           75.9        22.29       22.5        
H           81.02       16.27       22.22       
H           79.56       16.93       22.45       
H           80.02595    16.85753    20.76558    
H           80.65       26.15       23.31       
H           80.9331     25.73965    25.07738    
H           82.28       25.42       23.8        
C           76.85       22.76       22.69       
C           78.27       24.67       23.29       
C           77.01       24.18       22.82       
C           91.46       14.45       23.36       
S           91.04       15.95       22.65       
C           90.39       13.68       23.68       
C           89.25       14.4        23.43       
C           89.39       15.75       22.99       
N           87.88       14.26       23.53       
C           87.26       15.42       23.23       
C           88.18       16.36       22.84       
C           87.16       13.07       23.99       
H           86.15       13.27       24.13       
H           87.57       12.75       24.95       
H           87.15277    12.26055    23.26005    
H           85.06       15.19       23.16       
H           90.45       12.63       23.95       
C           85.94       15.84       23.12       
S           87.4        17.89       22.42       
C           85.8        17.18       22.88       
C           102.29      13.73       26.41       
C           101.87      14.67       25.47       
C           101.38      12.78       26.89       
C           100.06      12.8        26.34       
C           99.63       13.69       25.35       
C           100.58      14.64       24.93       
N           99.05       11.87       26.63       
C           97.88       12.14       25.89       
C           98.17       13.41       25.04       
O           96.9        11.4        26.03       
C           99.13       10.75       27.55       
C           97.17       14.01       24.28       
C           95.7        13.85       24.19       
C           95.22       14.75       23.21       
N           96.28       15.42       22.63       
C           97.43       15.12       23.25       
C           94.7        13.02       24.77       
O           98.52       15.52       22.87       
C           96.23       16.32       21.51       
H           100.29      15.41       24.25       
H           101.73      12.09       27.63       
H           102.6       15.41       25.08       
H           93.59       15.53       22.05       
H           94.89       12.26       25.59       
H           92.63       12.59       24.96       
H           98.13       10.68       28.05       
H           99.81       10.96       28.27       
H           99.51638    9.85523     27.06194    
H           95.43       15.96       20.84       
H           95.94031    17.33393    21.7859     
H           97.23       16.3        21.03       
C           93.32       13.23       24.52       
C           93.86       14.85       22.79       
C           92.88       14.12       23.53       
C           109.09      13.03       30.13       
S           107.9       11.82       29.67       
C           108.82      14.24       29.6        
C           107.62      14.26       28.85       
C           107.02      12.96       28.77       
N           106.87      15.15       28.12       
C           105.74      14.46       27.7        
C           105.8       13.12       28.16       
C           106.95      16.58       28.25       
H           107.86      16.98       27.81       
H           106.24      17.12       27.6        
H           106.79813   16.80418    29.30583    
H           104.42      15.77       26.55       
H           109.56      15.07       29.71       
C           104.58      14.79       26.99       
S           104.42      12.3        27.58       
C           103.67      13.76       26.95       
C           116.6       9.59        37.88       
C           116.19      10.97       37.83       
C           115.97      8.68        37.04       
C           115.17      9.19        35.96       
C           114.8       10.54       35.87       
C           115.33      11.4        36.87       
N           114.64      8.52        34.86       
C           113.95      9.36        34.02       
C           113.95      10.7        34.65       
O           113.35      8.92        33.08       
C           114.56      7.07        34.53       
C           113.19      11.78       34.14       
C           112.26      11.88       32.93       
C           111.65      13.14       32.91       
N           112.07      13.88       33.96       
C           112.96      13.16       34.72       
C           111.94      11.13       31.76       
O           113.49      13.63       35.68       
C           111.45      15.15       34.42       
H           115.09      12.44       36.88       
H           116.13      7.61        37.16       
H           116.36      11.54       38.67       
H           110.2       14.52       32.01       
H           112.4       10.22       31.42       
H           110.68      10.92       30.02       
H           113.92      6.89        33.69       
H           114.19      6.52        35.36       
H           115.55819   6.74664     34.23476    
H           111.51      15.09       35.47       
H           111.96734   16.00534    33.98543    
H           110.47      15.0        34.18       
C           110.88      11.53       30.9        
C           110.68      13.52       31.95       
C           110.22      12.7        31.01       
C           119.83      5.42        43.65       
S           119.58      5.11        41.96       
C           119.44      6.73        43.98       
C           118.86      7.37        42.87       
C           118.96      6.66        41.64       
N           118.22      8.58        42.67       
C           118.0       8.59        41.31       
C           118.41      7.46        40.63       
C           118.06      9.7         43.62       
H           117.17      10.32       43.41       
H           117.9       9.35        44.64       
H           118.99092   10.26695    43.613      
H           117.04      10.44       40.63       
H           119.64      7.18        44.92       
C           117.38      9.5         40.39       
S           117.84      7.33        39.03       
C           117.29      8.98        39.06       
C           124.35      -3.07       49.54       
C           124.03      -1.86       50.07       
C           124.27      -3.15       48.1        
C           123.79      -2.05       47.38       
C           123.45      -0.81       47.9        
C           123.64      -0.72       49.29       
N           123.59      -2.08       46.0        
C           123.01      -0.89       45.64       
C           122.9       0.12        46.79       
O           122.86      -0.6        44.43       
C           123.79      -3.14       45.03       
C           122.57      1.47        46.78       
C           121.86      2.32        45.82       
C           121.68      3.59        46.35       
N           122.24      3.67        47.54       
C           122.85      2.47        47.95       
C           121.28      2.09        44.53       
O           123.32      2.33        49.04       
C           122.48      4.86        48.29       
H           123.31      0.14        49.82       
H           124.41      -4.05       47.55       
H           124.02      -1.76       51.13       
H           120.99      5.63        46.21       
H           121.25      1.11        44.09       
H           120.18      2.91        42.98       
H           124.69      -3.7        45.28       
H           124.08      -2.68       44.11       
H           122.87643   -3.72136    44.90542    
H           122.52      4.65        49.37       
H           123.32646   5.45668     47.95003    
H           121.65      5.6         48.16       
C           120.61      3.14        43.94       
C           121.14      4.68        45.67       
C           120.49      4.42        44.48       
C           124.77      -10.12      52.81       
S           124.01      -9.53       51.34       
C           125.58      -9.15       53.38       
C           125.54      -7.87       52.76       
C           124.65      -7.93       51.68       
N           126.03      -6.56       52.91       
C           125.39      -5.8        51.93       
C           124.63      -6.62       51.05       
C           127.1       -6.24       53.82       
H           127.67      -5.3        53.54       
H           127.82      -7.04       53.79       
H           126.79204   -6.11825    54.85848    
H           125.8       -3.67       51.98       
H           126.06      -9.31       54.31       
C           125.38      -4.47       51.46       
S           123.95      -5.75       49.68       
C           124.53      -4.23       50.36       
C           120.33      -19.94      56.37       
C           120.48      -18.78      57.18       
C           120.7       -19.78      55.06       
C           121.43      -18.7       54.57       
C           121.63      -17.54      55.38       
C           121.09      -17.64      56.64       
N           121.82      -18.39      53.3        
C           122.36      -17.11      53.18       
C           122.4       -16.48      54.57       
O           122.72      -16.65      52.06       
C           121.58      -19.16      52.09       
C           122.95      -15.23      54.86       
C           123.36      -14.07      54.07       
C           123.82      -13.08      54.96       
N           123.76      -13.56      56.3        
C           123.26      -14.84      56.3        
C           123.35      -13.66      52.71       
O           123.0       -15.47      57.34       
C           123.94      -12.74      57.52       
H           121.03      -16.64      57.17       
H           120.49      -20.57      54.3        
H           120.11      -18.75      58.17       
H           124.59      -11.09      55.41       
H           123.18      -14.36      51.95       
H           123.82      -12.25      51.31       
H           121.19      -18.63      51.31       
H           120.86      -19.95      52.34       
H           122.5051    -19.66525   51.81247    
H           123.55      -11.72      57.38       
H           124.99288   -12.62224   57.77629    
H           123.41      -13.28      58.3        
C           123.87      -12.42      52.34       
C           124.25      -11.73      54.61       
C           124.34      -11.46      53.28       
C           116.56      -26.61      57.74       
S           117.43      -26.06      56.35       
C           116.6       -25.77      58.76       
C           117.47      -24.65      58.47       
C           117.94      -24.62      57.22       
N           117.88      -23.46      59.14       
C           118.54      -22.7       58.25       
C           118.57      -23.44      57.05       
C           117.82      -23.29      60.58       
H           118.23      -22.29      60.86       
H           118.47      -23.98      61.05       
H           116.82059   -23.21962   61.00933    
H           119.21      -20.7       58.79       
H           116.02      -25.96      59.66       
C           119.17      -21.45      58.06       
S           119.43      -22.6       55.81       
C           119.62      -21.16      56.82       
C           112.66      -37.3       57.6        
C           111.91      -36.25      58.18       
C           113.76      -36.93      56.79       
C           114.15      -35.6       56.66       
C           113.48      -34.6       57.41       
C           112.25      -34.89      58.05       
N           115.33      -35.16      56.08       
C           115.47      -33.82      56.38       
C           114.28      -33.31      57.21       
O           116.29      -33.09      55.92       
C           115.89      -35.86      54.97       
C           114.26      -31.93      57.68       
C           115.1       -30.64      57.7        
C           114.41      -29.61      58.38       
N           113.24      -30.15      58.89       
C           113.04      -31.49      58.58       
C           116.34      -30.31      57.09       
O           112.01      -32.11      58.97       
C           112.33      -29.37      59.74       
H           111.67      -34.14      58.55       
H           114.26      -37.72      56.2        
H           111.1       -36.5       58.87       
H           114.23      -27.6       58.8        
H           116.9       -31.07      56.68       
H           117.79      -28.73      56.68       
H           116.96      -35.81      54.94       
H           115.65      -36.89      54.92       
H           115.57486   -35.50285   53.98958    
H           111.41      -29.84      59.74       
H           112.70797   -29.28901   60.75916    
H           112.09      -28.46      59.29       
C           116.84      -28.99      57.18       
C           114.91      -28.34      58.42       
C           116.09      -28.0       57.81       
C           110.84      -44.94      58.38       
S           111.25      -43.99      56.98       
C           110.92      -44.2       59.51       
C           111.27      -42.81      59.3        
C           111.51      -42.57      58.0        
N           111.48      -41.66      60.0        
C           111.77      -40.62      59.08       
C           111.82      -41.17      57.85       
C           111.32      -41.61      61.42       
H           111.67      -40.61      61.79       
H           111.88      -42.43      61.96       
H           110.27143   -41.79421   61.6538     
H           112.25      -38.7       60.07       
H           110.88      -44.63      60.5        
C           112.05      -39.2       59.15       
S           112.16      -39.91      56.64       
C           112.35      -38.66      57.88       
C           108.34      -55.98      57.77       
C           108.41      -55.34      58.99       
C           108.61      -55.27      56.59       
C           109.05      -53.93      56.72       
C           109.31      -53.24      57.96       
C           108.88      -53.99      59.11       
N           109.45      -53.07      55.67       
C           109.88      -51.87      56.15       
C           109.75      -51.85      57.66       
O           110.33      -51.04      55.37       
C           109.38      -53.34      54.26       
C           109.93      -50.72      58.47       
C           110.16      -49.28      58.2        
C           110.29      -48.57      59.4        
N           110.13      -49.45      60.41       
C           110.02      -50.74      60.01       
C           110.28      -48.46      57.08       
O           109.76      -51.61      60.87       
C           109.79      -49.14      61.8        
H           108.85      -53.5       60.12       
H           108.49      -55.72      55.64       
H           108.08      -55.83      59.91       
H           110.56      -46.61      60.42       
H           110.19      -48.97      56.12       
H           110.62      -46.51      56.18       
H           110.4       -53.27      53.95       
H           109.01      -54.37      54.11       
H           108.65825   -52.73147   53.71515    
H           108.97      -49.71      62.25       
H           110.68627   -49.09732   62.41885    
H           109.41      -48.15      61.74       
C           110.53      -47.08      57.09       
C           110.49      -47.16      59.48       
C           110.71      -46.41      58.28       
C           103.8       -62.17      57.7        
S           104.09      -61.11      59.04       
C           104.65      -62.1       56.66       
C           105.53      -61.03      56.76       
C           105.31      -60.35      57.97       
N           106.61      -60.42      56.09       
C           106.91      -59.29      56.77       
C           106.21      -59.25      58.01       
C           106.83      -60.52      54.59       
H           107.89      -60.51      54.44       
H           106.37      -59.58      54.1        
H           106.40581   -61.38959   54.08804    
H           108.33      -57.97      55.77       
H           104.59      -62.81      55.83       
C           107.78      -58.19      56.61       
S           106.67      -57.84      58.91       
C           107.8       -57.31      57.65       
H           23.48       43.64       20.21       
H           103.03      -62.96      57.81       
