512

C           27.9        39.09       23.7        
C           27.31       40.31       23.77       
C           27.29       38.1        24.45       
C           26.07       38.29       25.09       
C           25.42       39.53       25.08       
C           26.11       40.57       24.41       
N           25.45       37.43       25.98       
C           24.25       37.98       26.41       
C           24.16       39.43       25.86       
O           23.69       37.47       27.35       
C           26.1        36.3        26.61       
C           23.1        40.27       26.16       
C           21.73       40.11       26.7        
C           21.15       41.37       26.8        
N           22.05       42.34       26.32       
C           23.23       41.74       26.02       
C           20.99       39.09       27.23       
O           24.27       42.44       25.88       
C           21.99       43.82       26.59       
H           25.77       41.59       24.42       
H           27.78       37.18       24.61       
H           27.72       41.08       23.08       
H           19.42       42.59       27.28       
H           21.3        38.09       27.01       
H           19.2        38.39       28.07       
H           27.02       36.08       26.2        
H           26.45       36.6        27.58       
H           25.61849    35.32302    26.56813    
H           21.52       43.97       27.58       
H           21.51456    44.42316    25.81653    
H           23.05       44.09       26.79       
C           19.75       39.28       27.82       
C           19.88       41.61       27.35       
C           19.16       40.54       27.9        
C           35.19       37.05       21.88       
S           33.69       36.11       22.0        
C           34.95       38.38       21.91       
C           33.55       38.63       22.15       
C           32.77       37.53       22.11       
N           32.75       39.73       22.31       
C           31.42       39.23       22.61       
C           31.44       37.87       22.45       
C           33.09       41.15       22.23       
H           32.13       41.65       22.53       
H           33.3        41.51       21.23       
H           33.83926    41.36007    22.99327    
H           29.97       40.94       23.23       
H           35.75       39.15       21.81       
C           30.14       39.81       22.94       
S           29.94       37.19       22.89       
C           29.2        38.83       23.14       
C           45.45       32.56       22.46       
C           45.23       33.87       22.78       
C           44.34       31.78       22.17       
C           43.09       32.36       22.06       
C           42.83       33.74       22.4        
C           43.96       34.46       22.84       
N           41.89       31.73       21.7        
C           40.8        32.54       21.95       
C           41.36       33.92       22.32       
O           39.63       32.18       21.77       
C           41.77       30.45       20.95       
C           40.55       35.07       22.52       
C           39.15       35.38       22.15       
C           38.77       36.6        22.81       
N           39.88       37.09       23.44       
C           41.0        36.36       23.18       
C           38.12       34.82       21.38       
O           42.02       36.6        23.74       
C           39.89       38.31       24.25       
H           43.83       35.47       23.18       
H           44.43       30.68       22.02       
H           46.11       34.41       23.12       
H           37.17       37.97       23.42       
H           38.4        34.03       20.71       
H           36.12       34.91       20.58       
H           42.63       29.83       20.89       
H           41.04       29.78       21.47       
H           41.43907    30.63705    19.92843    
H           39.26       39.11       23.86       
H           39.69469    38.20537    25.31724    
H           40.89       38.68       24.13       
C           36.85       35.37       21.2        
C           37.45       37.08       22.78       
C           36.49       36.43       21.96       
C           52.08       29.68       25.27       
S           51.32       31.22       25.63       
C           51.46       28.94       24.36       
C           50.3        29.64       23.88       
C           50.05       30.89       24.5        
N           49.37       29.44       22.87       
C           48.42       30.45       22.95       
C           48.84       31.35       23.96       
C           49.66       28.81       21.59       
H           48.9        28.91       20.84       
H           49.89       27.69       21.59       
H           50.54936    29.28337    21.17401    
H           46.81       30.31       21.49       
H           51.72       27.97       23.97       
C           47.2        30.77       22.32       
S           47.71       32.63       24.13       
C           46.69       31.92       22.83       
C           62.85       27.14       26.18       
C           61.92       26.12       25.92       
C           62.34       28.38       26.62       
C           60.99       28.56       26.72       
C           59.98       27.55       26.45       
C           60.52       26.32       25.98       
N           60.33       29.7        27.05       
C           58.99       29.63       26.97       
C           58.65       28.17       26.63       
O           58.21       30.49       27.34       
C           60.96       31.01       26.95       
C           57.36       27.81       26.51       
C           56.09       28.56       26.24       
C           54.99       27.6        26.21       
N           55.57       26.28       26.33       
C           56.88       26.37       26.68       
C           55.76       29.87       25.91       
O           57.64       25.33       26.87       
C           54.94       24.95       26.16       
H           59.84       25.4        25.94       
H           63.02       29.11       26.9        
H           62.31       25.14       25.64       
H           52.92       27.28       26.07       
H           56.58       30.59       25.78       
H           54.26       31.33       25.45       
H           60.57       31.6        27.75       
H           62.01       30.98       27.08       
H           60.68163    31.50963    26.02211    
H           55.47       24.34       25.44       
H           54.70368    24.5069     27.12743    
H           54.02       25.2        25.55       
C           54.44       30.26       25.78       
C           53.7        27.99       25.98       
C           53.37       29.37       25.8        
C           70.17       24.8        25.21       
S           68.79       24.16       24.44       
C           69.93       25.86       25.97       
C           68.58       26.19       26.04       
C           67.76       25.29       25.29       
N           67.85       27.08       26.68       
C           66.52       26.86       26.21       
C           66.45       25.73       25.34       
C           68.33       27.91       27.69       
H           67.61       28.68       27.92       
H           69.25       28.46       27.39       
H           68.53386    27.3406     28.59682    
H           65.17       28.3        27.3        
H           70.6        26.4        26.58       
C           65.31       27.45       26.54       
S           64.75       25.57       24.88       
C           64.25       26.87       25.89       
C           79.81       19.28       23.31       
C           79.73       20.62       23.03       
C           78.69       18.67       23.76       
C           77.52       19.36       23.91       
C           77.33       20.71       23.71       
C           78.56       21.37       23.3        
N           76.36       18.75       24.47       
C           75.39       19.68       24.43       
C           75.9        21.02       24.08       
O           74.32       19.31       24.83       
C           76.05       17.3        24.35       
C           75.26       22.25       24.01       
C           73.89       22.67       24.44       
C           73.67       24.04       24.04       
N           74.78       24.52       23.38       
C           75.73       23.53       23.36       
C           72.81       22.15       25.18       
O           76.78       23.83       22.92       
C           74.93       25.79       22.71       
H           78.53       22.45       23.11       
H           78.88       17.6        24.03       
H           80.61       21.15       22.66       
H           72.35       25.76       24.12       
H           73.03       21.23       25.65       
H           70.81       22.14       25.88       
H           76.87       16.83       24.82       
H           75.11       17.11       25.0        
H           75.87848    17.03557    23.30657    
H           73.94       26.18       22.42       
H           75.46374    26.59061    23.2221     
H           75.37       25.59       21.71       
C           71.55       22.74       25.37       
C           72.48       24.71       24.39       
C           71.43       24.05       25.0        
C           87.08       16.71       23.26       
S           86.39       18.22       23.89       
C           86.16       15.87       22.79       
C           84.83       16.35       22.91       
C           84.83       17.62       23.39       
N           83.53       15.98       22.52       
C           82.74       17.0        23.0        
C           83.5        18.07       23.46       
C           83.09       14.68       21.96       
H           82.12       14.8        21.45       
H           82.77       13.95       22.69       
H           83.80195    14.31365    21.2204     
H           80.59       16.62       22.65       
H           86.39       14.87       22.39       
C           81.36       17.29       23.0        
S           82.53       19.52       23.81       
C           81.11       18.62       23.3        
C           97.73       15.85       26.6        
C           97.19       17.08       26.39       
C           96.93       14.74       26.54       
C           95.65       14.9        26.0        
C           95.06       16.14       25.69       
C           95.85       17.25       26.08       
N           94.78       13.82       25.78       
C           93.65       14.35       25.23       
C           93.73       15.87       25.05       
O           92.71       13.57       25.04       
C           94.98       12.51       26.31       
C           92.62       16.64       24.63       
C           91.24       16.32       24.13       
C           90.66       17.55       23.82       
N           91.55       18.64       23.8        
C           92.71       18.17       24.24       
C           90.38       15.13       24.12       
O           93.69       18.84       24.17       
C           91.4        19.98       23.24       
H           95.48       18.3        25.95       
H           97.3        13.77       26.7        
H           97.7        18.0        26.67       
H           88.9        18.59       23.07       
H           90.79       14.15       24.3        
H           88.43       14.44       23.82       
H           93.95       12.06       26.48       
H           95.52       12.51       27.25       
H           95.49557    11.88444    25.58133    
H           90.77       19.88       22.31       
H           90.70221    20.57912    23.82502    
H           92.33       20.56       23.16       
C           89.0        15.3        23.76       
C           89.33       17.67       23.41       
C           88.46       16.56       23.45       
C           105.09      14.42       28.63       
S           103.73      13.3        28.57       
C           104.77      15.71       28.26       
C           103.38      15.82       27.97       
C           102.71      14.63       28.01       
N           102.59      16.84       27.41       
C           101.35      16.25       27.3        
C           101.38      14.88       27.66       
C           102.92      18.23       27.69       
H           102.75      18.38       28.72       
H           103.95      18.48       27.44       
H           102.29184   18.9358     27.14653    
H           99.94       17.82       26.72       
H           105.46      16.55       28.08       
C           100.1       16.76       26.96       
S           99.76       14.16       27.45       
C           99.14       15.74       26.97       
C           114.83      10.57       32.47       
C           114.32      11.83       32.83       
C           114.02      9.83        31.61       
C           112.85      10.34       31.03       
C           112.49      11.71       31.2        
C           113.29      12.48       32.09       
N           111.94      9.63        30.21       
C           110.89      10.4        29.93       
C           111.22      11.83       30.44       
O           109.92      9.93        29.25       
C           111.9       8.28        29.75       
C           110.36      12.89       30.25       
C           108.91      13.04       29.91       
C           108.64      14.35       29.68       
N           109.8       15.14       29.93       
C           110.82      14.32       30.39       
C           107.83      12.14       29.69       
O           111.93      14.78       30.61       
C           109.94      16.55       29.74       
H           112.98      13.47       32.38       
H           114.25      8.79        31.51       
H           114.86      12.41       33.6        
H           107.32      15.97       29.22       
H           108.03      11.08       29.83       
H           105.81      11.89       29.16       
H           110.95      7.93        29.38       
H           112.23      7.65        30.6        
H           112.63196   8.1295      28.95647    
H           110.59      17.04       30.53       
H           110.43089   16.77766    28.7938     
H           108.98      16.95       29.91       
C           106.57      12.61       29.42       
C           107.43      14.86       29.32       
C           106.37      13.93       29.18       
C           120.53      6.46        35.41       
S           119.76      6.28        33.87       
C           120.19      7.64        36.09       
C           119.39      8.5         35.29       
C           119.02      7.86        34.11       
N           118.6       9.63        35.54       
C           117.73      9.71        34.47       
C           118.02      8.67        33.59       
C           118.64      10.49       36.67       
H           117.97      11.33       36.57       
H           118.26      9.88        37.47       
H           119.63903   10.84473    36.92338    
H           116.25      11.29       34.76       
H           120.37      7.76        37.16       
C           116.66      10.5        34.17       
S           116.79      8.58        32.37       
C           116.0       10.01       33.05       
C           123.43      -2.47       41.4        
C           123.95      -1.24       41.67       
C           122.57      -2.74       40.33       
C           122.4       -1.75       39.45       
C           122.99      -0.42       39.56       
C           123.76      -0.22       40.73       
N           121.58      -1.71       38.35       
C           121.46      -0.47       37.75       
C           122.44      0.45        38.42       
O           120.67      -0.19       36.82       
C           120.7       -2.84       37.97       
C           122.58      1.81        38.08       
C           121.85      2.83        37.2        
C           122.62      4.05        37.36       
N           123.8       3.81        38.03       
C           123.81      2.53        38.57       
C           120.66      2.89        36.4        
O           124.86      2.12        39.02       
C           124.84      4.73        38.23       
H           124.19      0.72        40.93       
H           122.12      -3.72       40.19       
H           124.39      -1.03       42.61       
H           122.73      6.26        37.03       
H           120.05      2.04        36.31       
H           119.47      4.16        35.18       
H           119.84      -2.58       37.33       
H           120.25      -3.22       38.92       
H           121.26329   -3.56729    37.38532    
H           124.78      5.59        37.54       
H           124.90299   5.15696     39.23092    
H           125.72      4.18        37.87       
C           120.38      4.15        35.8        
C           122.17      5.26        36.88       
C           121.15      5.31        35.93       
C           121.94      -7.98       46.65       
S           121.96      -8.05       44.9        
C           122.2       -6.78       47.2        
C           122.54      -5.81       46.19       
C           122.44      -6.4        44.93       
N           123.0       -4.53       46.09       
C           123.11      -4.28       44.72       
C           122.76      -5.39       44.06       
C           123.25      -3.61       47.18       
H           123.51      -2.63       46.8        
H           124.11      -4.04       47.67       
H           122.32416   -3.49149    47.74291    
H           123.63      -2.21       44.24       
H           122.2       -6.64       48.3        
C           123.43      -3.18       43.85       
S           122.88      -5.22       42.31       
C           123.35      -3.5        42.5        
C           117.92      -17.29      51.96       
C           117.69      -15.99      52.42       
C           118.64      -17.37      50.74       
C           119.12      -16.16      50.09       
C           118.97      -14.85      50.59       
C           118.24      -14.88      51.77       
N           119.76      -16.12      48.81       
C           120.21      -14.84      48.49       
C           119.71      -13.91      49.63       
O           120.81      -14.53      47.43       
C           119.83      -17.19      47.86       
C           120.03      -12.57      49.65       
C           120.6       -11.54      48.71       
C           120.55      -10.27      49.34       
N           120.05      -10.36      50.6        
C           119.77      -11.71      50.88       
C           121.19      -11.55      47.41       
O           119.47      -12.01      51.98       
C           119.95      -9.3        51.52       
H           118.01      -13.88      52.23       
H           118.86      -18.32      50.2        
H           117.19      -15.86      53.38       
H           120.88      -8.09       49.11       
H           121.38      -12.46      46.88       
H           122.08      -10.59      45.83       
H           119.56      -16.86      46.86       
H           119.15      -18.03      48.07       
H           120.83302   -17.61381   47.90944    
H           119.61      -8.44       51.05       
H           120.89649   -9.13754    52.03562    
H           119.19      -9.57       52.22       
C           121.62      -10.4       46.8        
C           120.95      -9.12       48.71       
C           121.51      -9.19       47.4        
C           116.05      -24.08      54.85       
S           116.79      -23.67      53.31       
C           115.69      -22.97      55.6        
C           116.11      -21.79      54.97       
C           116.73      -21.99      53.74       
N           116.16      -20.47      55.32       
C           116.77      -19.83      54.28       
C           117.16      -20.75      53.28       
C           115.46      -19.71      56.43       
H           115.22      -18.67      56.13       
H           116.01      -19.64      57.31       
H           114.55286   -20.26314   56.67338    
H           116.77      -17.62      54.6        
H           115.16      -22.96      56.59       
C           116.99      -18.48      53.93       
S           117.98      -19.93      51.99       
C           117.53      -18.37      52.7        
C           111.26      -34.31      55.94       
C           111.14      -33.38      56.92       
C           112.02      -34.02      54.85       
C           112.68      -32.8       54.8        
C           112.51      -31.76      55.76       
C           111.78      -32.13      56.89       
N           113.57      -32.38      53.83       
C           113.83      -31.01      54.05       
C           113.32      -30.54      55.35       
O           114.6       -30.54      53.3        
C           113.69      -33.0       52.47       
C           113.57      -29.28      55.84       
C           114.41      -28.05      55.34       
C           114.44      -27.13      56.42       
N           113.65      -27.51      57.54       
C           113.16      -28.78      57.24       
C           115.17      -27.76      54.25       
O           112.57      -29.34      58.12       
C           113.31      -26.85      58.84       
H           111.62      -31.4       57.69       
H           112.25      -34.8       54.16       
H           110.48      -33.53      57.75       
H           114.87      -25.16      57.15       
H           115.48      -28.42      53.52       
H           116.54      -26.3       53.38       
H           114.61      -32.78      51.98       
H           113.58      -34.06      52.49       
H           112.89816   -32.58287   51.84784    
H           112.65      -27.43      59.46       
H           114.12831   -26.50326   59.47107    
H           112.72      -25.96      58.52       
C           115.8       -26.48      54.16       
C           115.01      -25.85      56.33       
C           115.65      -25.49      55.18       
C           109.3       -41.74      56.45       
S           109.6       -40.77      55.07       
C           109.34      -41.05      57.63       
C           109.69      -39.66      57.4        
C           109.85      -39.39      56.1        
N           109.99      -38.55      58.14       
C           110.15      -37.54      57.28       
C           110.06      -38.03      55.97       
C           109.96      -38.49      59.59       
H           110.28      -37.51      59.89       
H           110.68      -39.26      60.01       
H           108.95986   -38.64605   59.99431    
H           110.83      -35.72      58.32       
H           109.31      -41.48      58.59       
C           110.52      -36.21      57.45       
S           110.32      -36.73      54.85       
C           110.72      -35.66      56.21       
C           107.74      -52.78      54.61       
C           108.44      -52.34      55.71       
C           107.28      -51.84      53.63       
C           107.45      -50.51      53.98       
C           108.19      -50.02      55.1        
C           108.6       -51.0       55.98       
N           107.06      -49.44      53.24       
C           107.6       -48.29      53.69       
C           108.27      -48.53      55.04       
O           107.43      -47.28      53.06       
C           106.18      -49.57      52.11       
C           108.72      -47.5       55.83       
C           108.91      -46.04      55.71       
C           109.16      -45.46      57.0        
N           109.32      -46.45      57.92       
C           109.06      -47.68      57.36       
C           109.02      -45.08      54.69       
O           108.95      -48.73      58.04       
C           109.23      -46.21      59.31       
H           109.1       -50.7       56.85       
H           106.68      -52.13      52.8        
H           108.65      -52.99      56.57       
H           109.32      -43.71      58.21       
H           108.89      -45.41      53.67       
H           109.16      -43.01      54.0        
H           106.78      -49.15      51.3        
H           105.9       -50.64      51.79       
H           105.24999   -49.01488   52.23256    
H           108.64      -46.94      59.81       
H           110.17727   -46.09604   59.83705    
H           108.6       -45.36      59.35       
C           109.19      -43.74      54.9        
C           109.22      -44.11      57.26       
C           109.2       -43.2       56.19       
C           105.8       -60.03      52.73       
S           105.8       -58.59      51.75       
C           105.96      -59.83      54.05       
C           106.27      -58.47      54.31       
C           106.2       -57.69      53.19       
N           106.54      -57.64      55.45       
C           106.75      -56.36      54.93       
C           106.63      -56.35      53.56       
C           106.34      -58.14      56.85       
H           106.46      -57.3       57.51       
H           107.1       -58.92      57.11       
H           105.32147   -58.51298   56.95759    
H           107.34      -54.86      56.54       
H           105.91      -60.61      54.81       
C           107.11      -55.07      55.42       
S           107.04      -54.8       52.86       
C           107.26      -54.14      54.48       
H           18.26       40.67       28.52       
H           105.48      -60.94      52.37       
