512

C           32.48       7.77        21.51       
C           32.21       8.72        22.51       
C           31.56       7.61        20.46       
C           30.42       8.31        20.43       
C           30.01       9.26        21.42       
C           31.0        9.48        22.51       
N           29.44       8.25        19.46       
C           28.31       9.07        19.74       
C           28.63       9.8         21.07       
O           27.31       9.15        19.04       
C           29.45       7.22        18.42       
C           27.82       10.67       21.72       
C           26.56       11.47       21.31       
C           26.25       12.31       22.43       
N           27.13       12.02       23.47       
C           28.08       11.08       23.16       
C           25.7        11.68       20.13       
O           28.87       10.76       24.02       
C           27.09       12.75       24.75       
H           30.91       10.21       23.32       
H           31.85       7.0         19.63       
H           32.9        8.91        23.33       
H           24.71       13.61       23.29       
H           25.92       11.01       19.31       
H           23.96       12.62       19.24       
H           30.44       6.7         18.31       
H           28.77       6.38        18.76       
H           29.25035    7.59077     17.41463    
H           26.07       12.53       25.19       
H           27.13211    13.83774    24.69386    
H           27.81       12.22       25.41       
C           24.61       12.58       20.14       
C           25.1        13.15       22.39       
C           24.3        13.31       21.27       
C           38.19       2.57        21.02       
S           37.11       3.21        19.76       
C           38.11       3.21        22.22       
C           36.98       4.1         22.23       
C           36.34       4.23        20.98       
N           36.4        4.99        23.14       
C           35.37       5.65        22.41       
C           35.33       5.18        21.09       
C           36.91       5.42        24.43       
H           36.25       6.17        24.79       
H           37.89       5.91        24.34       
H           36.96101    4.61106     25.15878    
H           34.43       7.14        23.67       
H           38.81       3.08        23.03       
C           34.48       6.73        22.69       
S           34.12       5.98        20.16       
C           33.68       6.92        21.63       
C           45.82       -5.51       19.39       
C           45.07       -5.39       20.51       
C           45.46       -4.69       18.31       
C           44.36       -3.83       18.44       
C           43.57       -3.64       19.65       
C           43.94       -4.53       20.66       
N           43.88       -3.02       17.46       
C           42.9        -2.15       17.97       
C           42.64       -2.53       19.43       
O           42.37       -1.2        17.33       
C           43.98       -3.09       16.01       
C           41.73       -1.88       20.24       
C           40.85       -0.69       20.02       
C           40.16       -0.56       21.29       
N           40.48       -1.45       22.26       
C           41.38       -2.32       21.67       
C           40.49       0.3         19.02       
O           41.8        -3.28       22.21       
C           40.43       -1.37       23.69       
H           43.32       -4.62       21.59       
H           45.94       -4.9        17.39       
H           45.16       -6.12       21.37       
H           38.96       0.68        22.51       
H           40.99       0.27        18.07       
H           39.4        1.99        18.56       
H           44.05       -2.09       15.59       
H           44.93       -3.67       15.74       
H           43.15984    -3.69195    15.61873    
H           40.69       -0.41       24.02       
H           39.43253    -1.45882    24.12042    
H           41.2        -2.08       24.16       
C           39.67       1.33        19.36       
C           39.49       0.6         21.61       
C           39.18       1.51        20.65       
C           52.53       -9.1        20.31       
S           51.25       -8.64       21.41       
C           52.23       -8.88       19.01       
C           50.93       -8.2        18.92       
C           50.3        -8.05       20.17       
N           50.05       -7.85       17.86       
C           48.97       -7.43       18.5        
C           49.06       -7.52       19.9        
C           50.23       -7.8        16.38       
H           49.47       -7.14       15.95       
H           50.02       -8.78       15.96       
H           51.21467    -7.40042    16.1374     
H           47.38       -6.38       17.14       
H           52.91       -9.02       18.16       
C           47.73       -6.72       18.14       
S           47.64       -6.99       20.74       
C           46.97       -6.36       19.28       
C           62.06       -12.51      24.74       
C           61.84       -12.17      23.41       
C           60.94       -12.59      25.62       
C           59.67       -12.34      25.13       
C           59.52       -11.99      23.69       
C           60.64       -11.92      22.86       
N           58.42       -12.38      25.74       
C           57.45       -12.03      24.82       
C           58.05       -11.79      23.45       
O           56.28       -11.96      25.13       
C           58.16       -12.61      27.16       
C           57.36       -11.52      22.29       
C           56.08       -10.9       22.06       
C           55.81       -10.87      20.62       
N           56.9        -11.49      19.94       
C           57.84       -11.89      20.82       
C           55.16       -10.2       22.79       
O           58.97       -12.44      20.45       
C           57.11       -11.57      18.52       
H           60.69       -11.67      21.9        
H           61.1        -12.83      26.66       
H           62.69       -12.17      22.68       
H           54.69       -10.2       18.95       
H           55.18       -10.15      23.85       
H           53.35       -9.04       22.86       
H           57.44       -13.47      27.26       
H           59.07       -13.0       27.67       
H           57.89943    -11.70486   27.70857    
H           56.09       -11.63      18.0        
H           57.72781    -10.74386   18.16799    
H           57.66       -12.53      18.24       
C           54.02       -9.64       22.21       
C           54.76       -10.19      20.02       
C           53.76       -9.64       20.84       
C           69.33       -14.9       25.73       
S           68.29       -14.85      24.32       
C           68.72       -14.59      26.91       
C           67.32       -14.19      26.75       
C           67.04       -14.26      25.37       
N           66.18       -13.84      27.44       
C           65.23       -13.42      26.5        
C           65.78       -13.63      25.2        
C           65.94       -13.96      28.85       
H           64.87       -13.95      29.01       
H           66.41       -13.12      29.38       
H           66.35806    -14.85185   29.31683    
H           63.26       -13.0       27.26       
H           69.21       -14.58      27.88       
C           63.86       -13.02      26.41       
S           64.67       -13.25      23.98       
C           63.44       -12.82      25.13       
C           79.87       -18.07      24.27       
C           79.57       -16.86      24.78       
C           78.85       -18.97      23.88       
C           77.54       -18.52      24.15       
C           77.23       -17.23      24.71       
C           78.29       -16.41      25.01       
N           76.38       -19.19      23.81       
C           75.28       -18.46      24.21       
C           75.79       -17.11      24.76       
O           74.17       -18.9       24.08       
C           76.26       -20.53      23.19       
C           74.91       -16.15      25.31       
C           73.45       -15.99      25.24       
C           73.03       -14.93      26.04       
N           74.16       -14.24      26.46       
C           75.3        -14.95      26.16       
C           72.36       -16.75      24.69       
O           76.41       -14.48      26.48       
C           74.18       -12.87      26.93       
H           78.12       -15.46      25.33       
H           79.15       -19.88      23.39       
H           80.4        -16.23      25.09       
H           71.5        -13.6       26.71       
H           72.37       -17.62      24.0        
H           70.31       -16.89      24.24       
H           77.21       -20.99      23.11       
H           75.78       -21.21      23.88       
H           75.65054    -20.50849   22.28656    
H           73.32       -12.19      26.6        
H           74.33107    -12.81507   28.00808    
H           74.95       -12.38      26.36       
C           71.08       -16.3       24.78       
C           71.74       -14.45      26.15       
C           70.75       -15.18      25.56       
C           87.6        -19.42      24.38       
S           86.71       -18.32      25.3        
C           86.97       -20.0       23.4        
C           85.63       -19.65      23.42       
C           85.28       -18.78      24.4        
N           84.47       -19.89      22.7        
C           83.41       -19.33      23.36       
C           83.88       -18.58      24.41       
C           84.42       -20.81      21.62       
H           83.42       -20.88      21.21       
H           84.48       -21.75      22.08       
H           85.20648    -20.64704   20.88312    
H           81.55       -19.83      22.33       
H           87.5        -20.71      22.74       
C           82.0        -19.25      23.12       
S           82.57       -17.83      25.21       
C           81.33       -18.48      24.1        
C           97.93       -21.94      28.5        
C           97.65       -20.6       28.33       
C           96.95       -22.81      28.07       
C           95.73       -22.38      27.51       
C           95.37       -21.04      27.37       
C           96.43       -20.16      27.72       
N           94.78       -23.25      26.98       
C           93.8        -22.49      26.41       
C           94.03       -21.07      26.75       
O           92.93       -23.06      25.81       
C           95.03       -24.65      26.74       
C           93.08       -20.15      26.34       
C           91.64       -20.27      25.89       
C           91.28       -19.0       25.33       
N           92.33       -18.1       25.55       
C           93.38       -18.66      26.27       
C           90.61       -21.24      25.91       
O           94.39       -18.08      26.45       
C           92.31       -16.71      25.08       
H           96.43       -19.16      27.34       
H           97.15       -23.86      28.17       
H           98.31       -19.79      28.61       
H           89.79       -17.74      24.46       
H           90.67       -22.23      26.44       
H           88.64       -21.62      25.51       
H           96.06       -24.8       26.49       
H           94.52       -25.02      25.78       
H           94.66646    -25.16734   27.62786    
H           91.72       -16.53      24.17       
H           91.74233    -16.07766   25.76264    
H           93.38       -16.41      24.92       
C           89.39       -20.89      25.36       
C           89.99       -18.73      24.84       
C           89.01       -19.7       24.79       
C           104.05      -25.73      31.9        
S           102.51      -26.36      31.27       
C           104.17      -24.45      31.55       
C           103.02      -23.9       30.97       
C           102.01      -24.81      30.71       
N           102.64      -22.6       30.62       
C           101.43      -22.75      30.0        
C           100.95      -24.04      30.13       
C           103.35      -21.35      30.97       
H           104.39      -21.49      31.02       
H           103.2       -20.6       30.19       
H           102.96381   -21.01296   31.93196    
H           100.57      -20.8       29.5        
H           105.0       -23.91      31.94       
C           100.41      -21.89      29.5        
S           99.37       -24.16      29.34       
C           99.2        -22.49      29.13       
C           111.32      -32.86      36.39       
C           111.54      -31.48      36.29       
C           110.07      -33.32      35.9        
C           109.06      -32.42      35.42       
C           109.32      -31.02      35.31       
C           110.56      -30.57      35.82       
N           107.79      -32.68      35.09       
C           107.11      -31.55      34.67       
C           108.17      -30.42      34.68       
O           105.9       -31.53      34.56       
C           107.29      -34.02      34.66       
C           107.92      -29.16      34.25       
C           106.77      -28.36      33.88       
C           107.22      -27.18      33.17       
N           108.6       -27.31      33.02       
C           109.13      -28.35      33.8        
C           105.4       -28.47      34.01       
O           110.23      -28.87      33.6        
C           109.51      -26.31      32.51       
H           110.86      -29.52      35.89       
H           109.83      -34.34      36.01       
H           112.43      -30.98      36.74       
H           106.71      -25.44      31.91       
H           105.05      -29.26      34.64       
H           103.49      -27.57      33.58       
H           106.31      -33.92      34.18       
H           107.33      -34.67      35.52       
H           107.88433   -34.39757   33.82794    
H           110.31      -26.2       33.23       
H           109.89344   -26.46622   31.5017     
H           109.0       -25.39      32.56       
C           104.58      -27.51      33.46       
C           106.39      -26.36      32.41       
C           105.06      -26.57      32.53       
C           115.81      -37.83      40.43       
S           114.4       -38.15      39.53       
C           116.26      -36.54      40.36       
C           115.32      -35.76      39.62       
C           114.19      -36.43      39.13       
N           115.27      -34.46      39.17       
C           114.1       -34.36      38.42       
C           113.41      -35.55      38.39       
C           116.39      -33.51      39.18       
H           117.3       -33.97      38.8        
H           116.37      -32.7       38.52       
H           116.62048   -33.19774   40.19856    
H           113.84      -32.38      37.66       
H           117.19      -36.22      40.83       
C           113.49      -33.35      37.67       
S           112.02      -35.39      37.35       
C           112.31      -33.73      37.09       
C           120.78      -46.37      45.59       
C           121.36      -45.13      45.35       
C           119.6       -46.58      44.86       
C           118.96      -45.58      44.09       
C           119.59      -44.3       43.91       
C           120.82      -44.1       44.59       
N           117.72      -45.61      43.56       
C           117.45      -44.39      42.95       
C           118.69      -43.51      43.08       
O           116.42      -44.25      42.41       
C           116.77      -46.7       43.58       
C           118.77      -42.23      42.57       
C           117.79      -41.26      41.97       
C           118.48      -40.06      41.7        
N           119.88      -40.2       41.89       
C           120.11      -41.47      42.41       
C           116.39      -41.2       41.79       
O           121.21      -41.85      42.66       
C           120.99      -39.33      41.61       
H           121.38      -43.21      44.46       
H           119.1       -47.53      44.87       
H           122.47      -45.09      45.6        
H           118.52      -38.14      40.79       
H           115.78      -41.98      42.24       
H           114.78      -40.09      41.13       
H           115.76      -46.26      43.53       
H           116.87      -47.17      44.53       
H           116.91322   -47.4161    42.77081    
H           120.73      -38.5       40.82       
H           121.38208   -38.86663   42.51535    
H           121.79      -39.98      41.15       
C           115.82      -40.07      41.28       
C           117.93      -38.98      41.1        
C           116.51      -38.95      40.93       
C           122.93      -53.05      49.06       
S           121.47      -52.75      48.09       
C           123.81      -52.01      49.02       
C           123.25      -50.84      48.47       
C           122.07      -51.17      47.76       
N           123.64      -49.62      48.11       
C           122.67      -48.98      47.39       
C           121.7       -49.94      47.14       
C           124.7       -48.8       48.74       
H           124.74      -47.93      48.16       
H           125.71      -49.27      48.78       
H           124.37053   -48.52783   49.74273    
H           123.12      -46.76      46.99       
H           124.75      -52.1       49.48       
C           122.42      -47.59      46.96       
S           120.54      -49.17      46.16       
C           121.27      -47.53      46.28       
C           120.82      -62.24      54.94       
C           121.05      -61.03      55.55       
C           120.97      -62.34      53.51       
C           121.38      -61.23      52.8        
C           121.62      -59.94      53.43       
C           121.5       -59.93      54.79       
N           121.45      -61.13      51.46       
C           121.64      -59.79      51.09       
C           121.91      -58.93      52.37       
O           121.76      -59.61      49.88       
C           121.74      -62.26      50.62       
C           122.31      -57.62      52.39       
C           122.47      -56.63      51.28       
C           122.97      -55.42      51.83       
N           123.09      -55.63      53.22       
C           122.72      -56.82      53.61       
C           122.26      -56.59      49.89       
O           122.83      -57.18      54.75       
C           123.7       -54.63      54.04       
H           121.71      -59.05      55.29       
H           120.63      -63.24      53.02       
H           120.96      -60.95      56.61       
H           123.4       -53.26      51.65       
H           121.73      -57.41      49.41       
H           122.19      -55.49      48.07       
H           121.7       -62.05      49.53       
H           120.86      -62.96      50.82       
H           122.69229   -62.76936   50.76764    
H           123.21      -53.75      53.92       
H           124.76855   -54.49643   53.87128    
H           123.44      -54.85      55.08       
C           122.4       -55.37      49.17       
C           123.15      -54.22      51.11       
C           122.9       -54.27      49.75       
C           116.78      -68.32      57.42       
S           118.14      -68.34      56.28       
C           116.62      -67.14      58.07       
C           117.55      -66.22      57.55       
C           118.32      -66.64      56.52       
N           117.73      -64.87      57.74       
C           118.7       -64.46      56.86       
C           119.16      -65.56      56.07       
C           117.02      -64.09      58.74       
H           117.26      -63.04      58.68       
H           117.21      -64.47      59.76       
H           115.94166   -64.05476   58.58494    
H           119.18      -62.35      57.02       
H           115.98      -66.86      58.87       
C           119.42      -63.27      56.59       
S           120.38      -65.06      54.93       
C           120.34      -63.44      55.62       
C           110.97      -77.72      58.73       
C           110.8       -76.61      59.59       
C           112.11      -77.73      57.91       
C           112.87      -76.6       57.82       
C           112.74      -75.46      58.66       
C           111.71      -75.54      59.65       
N           113.96      -76.33      57.01       
C           114.52      -75.03      57.07       
C           113.66      -74.39      58.19       
O           115.45      -74.67      56.42       
C           114.5       -77.29      56.08       
C           113.9       -73.08      58.57       
C           114.63      -71.91      58.07       
C           114.56      -70.8       58.95       
N           113.74      -71.13      60.05       
C           113.31      -72.52      59.9        
C           115.24      -71.63      56.89       
O           112.76      -73.03      60.86       
C           113.48      -70.25      61.24       
H           111.46      -74.72      60.31       
H           112.2       -78.51      57.16       
H           109.97      -76.61      60.28       
H           115.05      -68.82      59.43       
H           115.32      -72.37      56.13       
H           116.7       -70.57      55.7        
H           115.52      -77.48      56.23       
H           114.14      -78.35      56.32       
H           114.302     -76.982     55.05334    
H           112.6       -70.53      61.78       
H           114.32262   -70.20642   61.93007    
H           113.28      -69.2       60.86       
C           116.08      -70.55      56.63       
C           115.18      -69.63      58.69       
C           116.04      -69.52      57.59       
C           107.73      -84.75      58.67       
S           108.47      -83.96      57.25       
C           107.95      -84.11      59.8        
C           108.5       -82.9       59.57       
C           108.85      -82.64      58.29       
N           108.74      -81.85      60.47       
C           109.32      -80.84      59.72       
C           109.4       -81.3       58.36       
C           108.06      -81.6       61.76       
H           108.0       -80.49      61.92       
H           108.57      -82.08      62.55       
H           107.00384   -81.85348   61.66847    
H           110.03      -79.1       60.84       
H           107.69      -84.5       60.77       
C           109.86      -79.57      59.94       
S           110.08      -80.0       57.37       
C           110.24      -79.01      58.8        
C           103.57      -95.37      58.01       
C           103.49      -94.67      59.21       
C           104.14      -94.77      56.89       
C           104.48      -93.42      57.01       
C           104.38      -92.63      58.22       
C           103.77      -93.32      59.29       
N           104.96      -92.59      55.98       
C           105.37      -91.38      56.47       
C           105.02      -91.32      57.94       
O           106.02      -90.56      55.79       
C           104.85      -92.86      54.56       
C           105.36      -90.14      58.68       
C           106.07      -88.84      58.4        
C           106.28      -88.11      59.63       
N           105.67      -88.89      60.67       
C           105.08      -90.04      60.18       
C           106.57      -88.14      57.29       
O           104.56      -90.77      60.9        
C           105.36      -88.45      62.0        
H           103.5       -92.79      60.2        
H           104.34      -95.37      56.05       
H           103.08      -95.14      60.13       
H           106.67      -86.31      60.63       
H           106.61      -88.58      56.29       
H           107.51      -86.51      56.44       
H           105.82      -93.2       54.3        
H           104.2       -93.71      54.38       
H           104.53189   -92.02857   53.93101    
H           104.72      -89.14      62.52       
H           106.25873   -88.3037    62.59915    
H           104.81      -87.55      61.94       
C           107.15      -86.9       57.39       
C           106.68      -86.79      59.67       
C           107.25      -86.15      58.59       
C           101.36      -102.83     58.74       
S           102.07      -101.75     59.91       
C           101.32      -102.29     57.48       
C           101.55      -100.85     57.49       
C           102.03      -100.45     58.74       
N           101.65      -99.79      56.57       
C           102.08      -98.73      57.28       
C           102.47      -99.09      58.55       
C           101.08      -99.77      55.23       
H           101.13      -98.8       54.71       
H           99.99       -100.05     55.26       
H           101.46875   -100.50431  54.52448    
H           102.44      -96.97      55.94       
H           101.1       -102.81     56.63       
C           102.52      -97.44      56.91       
S           103.24      -97.81      59.38       
C           103.11      -96.78      57.96       
H           23.25       13.49       21.47       
H           100.68      -103.58     59.07       
