512

C           30.68       7.78        22.31       
C           30.05       8.17        23.47       
C           30.07       8.05        21.06       
C           28.88       8.73        21.02       
C           28.19       9.03        22.23       
C           28.79       8.65        23.42       
N           28.11       9.02        19.86       
C           26.93       9.61        20.23       
C           26.96       9.75        21.8        
O           26.16       9.97        19.35       
C           28.45       8.67        18.5        
C           26.07       10.49       22.4        
C           24.71       11.11       22.15       
C           24.35       11.95       23.18       
N           25.3        11.89       24.19       
C           26.29       10.96       23.86       
C           23.82       11.05       21.11       
O           27.11       10.72       24.71       
C           25.21       12.38       25.59       
H           28.22       8.74        24.33       
H           30.61       7.75        20.2        
H           30.43       7.93        24.46       
H           22.95       13.37       23.88       
H           24.04       10.38       20.31       
H           21.99       11.63       20.21       
H           29.31       7.96        18.48       
H           27.59       8.08        18.1        
H           28.69543    9.58861     17.96707    
H           24.19       12.71       25.83       
H           25.74535    13.32604    25.67067    
H           25.47       11.7        26.39       
C           22.72       11.92       20.98       
C           23.14       12.62       23.11       
C           22.3        12.66       22.01       
C           37.05       3.22        22.21       
S           36.22       4.08        20.87       
C           36.26       3.31        23.34       
C           35.13       4.16        23.26       
C           34.97       4.66        21.98       
N           34.19       4.63        24.09       
C           33.35       5.45        23.31       
C           33.87       5.55        22.02       
C           34.14       4.66        25.52       
H           33.15       4.99        25.73       
H           34.78       5.46        25.89       
H           34.28465    3.69082     25.99736    
H           31.78       6.32        24.48       
H           36.64       2.79        24.17       
C           32.25       6.24        23.54       
S           32.91       6.67        21.06       
C           31.88       6.97        22.42       
C           46.73       -1.62       20.11       
C           46.36       -1.24       21.38       
C           45.78       -1.68       19.03       
C           44.53       -1.22       19.32       
C           44.13       -0.81       20.63       
C           45.02       -0.92       21.67       
N           43.44       -1.01       18.44       
C           42.38       -0.48       19.01       
C           42.59       -0.52       20.51       
O           41.41       -0.11       18.3        
C           43.49       -1.42       17.05       
C           41.71       0.09        21.43       
C           40.4        0.8         21.38       
C           40.06       1.17        22.69       
N           40.95       0.61        23.63       
C           41.94       -0.04       22.96       
C           39.64       1.32        20.34       
O           42.71       -0.6        23.72       
C           41.05       0.93        25.03       
H           44.82       -0.62       22.72       
H           45.96       -2.09       18.04       
H           47.17       -1.16       22.16       
H           38.8        2.29        24.01       
H           39.99       1.21        19.34       
H           37.91       2.55        19.79       
H           43.23       -0.71       16.37       
H           44.48       -1.88       16.78       
H           42.89345    -2.31482    16.87246    
H           40.91       1.99        25.16       
H           40.37576    0.3108      25.62168    
H           42.02       0.7         25.44       
C           38.48       2.14        20.6        
C           38.99       1.99        23.0        
C           38.12       2.36        21.94       
C           53.78       -4.83       19.57       
S           52.76       -4.62       21.0        
C           53.28       -4.25       18.46       
C           52.03       -3.63       18.71       
C           51.6        -3.82       20.06       
N           51.03       -3.03       18.02       
C           49.99       -2.73       18.88       
C           50.36       -3.17       20.15       
C           51.03       -2.85       16.56       
H           50.37       -2.01       16.3        
H           50.73       -3.76       16.1        
H           51.96936    -2.42765    16.20319    
H           48.44       -1.53       17.82       
H           53.77       -4.43       17.52       
C           48.76       -2.05       18.77       
S           49.09       -2.73       21.22       
C           48.02       -2.11       19.92       
C           62.62       -11.71      20.57       
C           62.68       -10.54      19.83       
C           61.48       -11.91      21.34       
C           60.45       -10.94      21.31       
C           60.43       -9.74       20.48       
C           61.65       -9.59       19.76       
N           59.31       -10.94      22.06       
C           58.59       -9.81       21.89       
C           59.14       -9.04       20.67       
O           57.5        -9.65       22.48       
C           59.11       -11.81      23.19       
C           58.59       -7.95       20.04       
C           57.37       -7.12       20.19       
C           57.22       -6.12       19.16       
N           58.33       -6.26       18.31       
C           59.2        -7.25       18.86       
C           56.34       -7.06       21.19       
O           60.22       -7.53       18.2        
C           58.86       -5.3        17.41       
H           61.85       -8.64       19.34       
H           61.34       -12.74      21.92       
H           63.52       -10.43      19.22       
H           55.93       -4.76       18.04       
H           56.32       -7.74       22.05       
H           54.33       -6.5        21.7        
H           57.98       -11.85      23.38       
H           59.33       -12.84      22.85       
H           59.73122    -11.47496   24.02062    
H           59.91       -5.02       17.74       
H           58.78977    -5.70034    16.39862    
H           58.3        -4.34       17.45       
C           55.12       -6.35       20.95       
C           56.05       -5.39       18.92       
C           54.98       -5.65       19.72       
C           68.93       -16.37      20.87       
S           68.56       -14.98      19.83       
C           67.86       -16.73      21.65       
C           66.76       -15.81      21.5        
C           67.0        -14.75      20.58       
N           65.51       -15.52      22.08       
C           64.97       -14.44      21.47       
C           65.82       -13.99      20.51       
C           64.95       -16.03      23.34       
H           63.86       -16.07      23.32       
H           65.21       -15.37      24.17       
H           65.26906    -17.05654   23.52034    
H           63.1        -13.89      22.42       
H           67.8        -17.57      22.23       
C           63.8        -13.67      21.6        
S           65.17       -12.63      19.63       
C           63.72       -12.7       20.65       
C           77.92       -22.77      19.7        
C           77.99       -21.45      20.09       
C           76.71       -23.3       19.23       
C           75.59       -22.48      19.34       
C           75.64       -21.1       19.6        
C           76.92       -20.57      19.95       
N           74.24       -22.83      19.15       
C           73.4        -21.78      19.26       
C           74.29       -20.58      19.61       
O           72.24       -21.86      19.18       
C           73.8        -24.24      19.19       
C           73.78       -19.3       19.83       
C           72.43       -18.73      20.16       
C           72.44       -17.36      19.98       
N           73.71       -16.91      19.62       
C           74.6        -18.02      19.58       
C           71.21       -19.29      20.54       
O           75.71       -17.92      19.18       
C           74.08       -15.54      19.15       
H           76.95       -19.6       20.29       
H           76.63       -24.37      19.2        
H           78.83       -21.04      20.55       
H           71.36       -15.5       19.97       
H           71.1        -20.35      20.67       
H           69.23       -18.94      21.12       
H           74.68       -24.95      19.08       
H           73.37       -24.56      20.11       
H           73.0628     -24.39746   18.4027     
H           73.3        -15.05      18.66       
H           74.28904    -14.89124   20.0006     
H           74.88       -15.76      18.42       
C           70.11       -18.48      20.82       
C           71.33       -16.48      20.2        
C           70.15       -17.09      20.61       
C           84.86       -26.44      19.89       
S           84.47       -24.79      20.12       
C           83.82       -27.15      19.48       
C           82.6        -26.34      19.46       
C           82.8        -25.03      19.71       
N           81.25       -26.6       19.25       
C           80.62       -25.41      19.46       
C           81.52       -24.41      19.77       
C           80.65       -27.75      18.78       
H           79.6        -27.51      18.56       
H           80.63       -28.57      19.52       
H           81.10617    -28.07984   17.84661    
H           78.41       -25.62      19.11       
H           83.9        -28.21      19.15       
C           79.24       -25.01      19.39       
S           80.68       -22.93      20.13       
C           79.1        -23.7       19.71       
C           95.36       -29.95      21.55       
C           94.86       -28.68      21.82       
C           94.46       -30.86      21.06       
C           93.17       -30.44      20.69       
C           92.68       -29.16      20.95       
C           93.54       -28.31      21.57       
N           92.17       -31.19      20.1        
C           91.01       -30.46      20.02       
C           91.24       -29.01      20.47       
O           90.04       -31.01      19.43       
C           92.12       -32.52      19.75       
C           90.33       -28.01      20.48       
C           88.85       -27.88      20.28       
C           88.52       -26.46      20.4        
N           89.64       -25.78      20.68       
C           90.77       -26.56      20.65       
C           87.79       -28.8       20.04       
O           91.91       -26.04      20.55       
C           89.71       -24.4       21.08       
H           93.29       -27.41      21.92       
H           94.83       -31.84      20.75       
H           95.51       -27.98      22.36       
H           87.07       -24.96      20.12       
H           88.02       -29.8       19.84       
H           85.71       -29.03      19.67       
H           93.13       -32.81      19.35       
H           91.52       -32.87      18.91       
H           91.87232    -33.15689   20.59919    
H           88.75       -23.89      21.04       
H           90.06512    -24.33341   22.10837    
H           90.35       -23.81      20.47       
C           86.46       -28.33      19.88       
C           87.24       -26.0       20.22       
C           86.22       -26.93      19.97       
C           102.66      -32.68      22.82       
S           101.14      -33.58      22.54       
C           102.37      -31.32      22.98       
C           101.01      -31.01      22.83       
C           100.21      -32.07      22.44       
N           100.28      -29.85      22.82       
C           98.99       -30.12      22.44       
C           98.89       -31.48      22.28       
C           100.83      -28.56      22.88       
H           101.86      -28.49      22.61       
H           100.32      -27.87      22.25       
H           100.71397   -28.26993   23.92427    
H           97.56       -28.33      22.3        
H           103.13      -30.58      23.06       
C           97.77       -29.46      22.25       
S           97.27       -31.99      21.98       
C           96.78       -30.32      21.9        
C           110.64      -36.92      29.57       
C           110.85      -35.74      28.79       
C           109.43      -37.61      29.35       
C           108.42      -37.08      28.46       
C           108.68      -35.97      27.64       
C           109.96      -35.33      27.86       
N           107.17      -37.61      28.28       
C           106.53      -36.84      27.27       
C           107.51      -35.76      26.78       
O           105.41      -37.26      26.97       
C           106.49      -38.56      29.05       
C           107.21      -34.81      25.84       
C           105.96      -34.59      24.98       
C           106.15      -33.46      24.21       
N           107.41      -32.96      24.42       
C           108.11      -33.67      25.33       
C           104.76      -35.25      24.77       
O           109.32      -33.6       25.43       
C           108.13      -31.91      23.69       
H           110.13      -34.37      27.39       
H           109.2       -38.46      29.93       
H           111.71      -35.14      28.88       
H           105.39      -31.77      22.98       
H           104.49      -36.15      25.24       
H           102.92      -35.4       23.85       
H           105.43      -38.48      28.98       
H           106.61      -38.36      30.12       
H           106.859     -39.56954   28.86898    
H           109.03      -31.7       24.28       
H           108.52082   -32.21708   22.71992    
H           107.52      -31.02      23.77       
C           103.8       -34.78      23.95       
C           105.15      -32.83      23.37       
C           103.87      -33.46      23.29       
C           115.06      -40.36      35.04       
S           113.62      -40.9       34.14       
C           115.36      -39.06      34.66       
C           114.54      -38.52      33.56       
C           113.57      -39.43      33.22       
N           114.44      -37.4       32.78       
C           113.36      -37.62      32.02       
C           112.78      -38.85      32.27       
C           115.44      -36.35      32.63       
H           116.45      -36.85      32.39       
H           115.21      -35.78      31.7        
H           115.44723   -35.72058   33.51987    
H           113.11      -35.88      30.85       
H           116.23      -38.53      35.0        
C           112.76      -36.85      31.05       
S           111.23      -38.93      31.4        
C           111.62      -37.42      30.53       
C           119.38      -47.36      42.55       
C           119.85      -46.02      42.61       
C           118.22      -47.56      41.89       
C           117.77      -46.62      41.03       
C           118.2       -45.29      40.94       
C           119.34      -44.99      41.79       
N           116.64      -46.74      40.18       
C           116.28      -45.55      39.57       
C           117.39      -44.56      39.91       
O           115.18      -45.36      38.96       
C           116.05      -48.0       39.79       
C           117.52      -43.34      39.31       
C           116.89      -42.76      38.1        
C           117.06      -41.32      38.04       
N           117.9       -40.97      39.06       
C           118.27      -42.15      39.8        
C           116.2       -43.27      36.98       
O           118.85      -42.04      40.86       
C           118.5       -39.67      39.16       
H           119.85      -44.09      41.71       
H           117.75      -48.57      41.89       
H           120.71      -45.72      43.18       
H           116.69      -39.52      37.0        
H           116.14      -44.34      36.76       
H           114.87      -42.97      35.32       
H           115.06      -47.7       39.46       
H           115.88      -48.68      40.53       
H           116.56708   -48.41227   38.92354    
H           118.81      -39.33      38.12       
H           117.85603   -38.95941   39.67814    
H           119.41      -39.82      39.77       
C           115.47      -42.46      36.1        
C           116.5       -40.55      37.1        
C           115.57      -41.1       36.16       
C           122.79      -53.85      45.17       
S           121.13      -53.55      44.78       
C           123.6       -52.78      45.17       
C           122.86      -51.56      44.88       
C           121.52      -51.85      44.61       
N           123.14      -50.26      44.54       
C           121.88      -49.67      44.22       
C           120.87      -50.64      44.25       
C           124.47      -49.65      44.5        
H           124.39      -48.64      44.12       
H           125.13      -50.03      43.78       
H           124.97684   -49.69997   45.4637     
H           122.05      -47.6       43.15       
H           124.6       -52.9       45.33       
C           121.44      -48.44      43.55       
S           119.31      -49.95      43.79       
C           120.08      -48.42      43.32       
C           123.6       -64.6       47.92       
C           123.14      -63.65      48.8        
C           124.21      -64.23      46.72       
C           124.25      -62.87      46.35       
C           123.62      -61.89      47.18       
C           123.1       -62.3       48.47       
N           124.81      -62.27      45.24       
C           124.5       -60.91      45.26       
C           123.67      -60.59      46.49       
O           125.03      -60.22      44.36       
C           125.79      -62.78      44.28       
C           123.06      -59.39      46.67       
C           123.29      -58.02      46.11       
C           122.36      -57.18      46.71       
N           121.58      -57.83      47.69       
C           121.95      -59.14      47.69       
C           124.24      -57.34      45.19       
O           121.26      -59.93      48.33       
C           120.36      -57.28      48.36       
H           122.69      -61.62      49.22       
H           124.7       -65.02      46.08       
H           122.75      -63.88      49.82       
H           121.42      -55.2       46.81       
H           125.02      -57.88      44.83       
H           124.84      -55.52      44.3        
H           125.93      -62.18      43.41       
H           125.46      -63.65      43.87       
H           126.76305   -62.98013   44.72857    
H           119.85      -56.65      47.65       
H           120.58371   -56.76965   49.2968     
H           119.77      -58.12      48.45       
C           124.09      -55.98      44.9        
C           122.21      -55.86      46.37       
C           123.06      -55.27      45.46       
C           120.11      -71.23      49.67       
S           120.45      -69.83      50.7        
C           120.7       -71.15      48.42       
C           121.53      -69.97      48.37       
C           121.5       -69.13      49.49       
N           122.15      -69.31      47.4        
C           122.69      -68.16      47.85       
C           122.32      -68.05      49.16       
C           122.45      -69.93      46.13       
H           122.93      -69.09      45.54       
H           121.56      -70.34      45.68       
H           123.10917   -70.79253   46.22817    
H           123.32      -66.88      46.2        
H           120.58      -71.88      47.62       
C           123.21      -67.0       47.29       
S           122.81      -66.51      49.75       
C           123.29      -65.97      48.18       
C           112.53      -78.77      53.03       
C           112.78      -77.61      53.74       
C           113.09      -78.91      51.78       
C           114.01      -77.92      51.37       
C           114.3       -76.74      52.11       
C           113.56      -76.59      53.3        
N           114.71      -77.9       50.15       
C           115.54      -76.74      50.15       
C           115.41      -76.04      51.46       
O           116.25      -76.45      49.21       
C           114.66      -78.91      49.08       
C           116.04      -74.81      51.63       
C           117.19      -74.14      50.97       
C           117.3       -72.82      51.58       
N           116.32      -72.65      52.51       
C           115.63      -73.77      52.66       
C           118.16      -74.46      50.02       
O           114.69      -73.78      53.45       
C           116.06      -71.39      53.2        
H           113.67      -75.74      53.92       
H           112.85      -79.77      51.09       
H           112.3       -77.47      54.69       
H           118.24      -70.89      51.58       
H           118.23      -75.46      49.58       
H           119.82      -73.79      48.97       
H           115.54      -79.58      49.09       
H           113.82      -79.61      49.25       
H           114.53577   -78.51539   48.07156    
H           115.03      -71.34      53.6        
H           116.70256   -71.26149   54.07103    
H           116.15      -70.55      52.59       
C           119.06      -73.51      49.59       
C           118.27      -71.89      51.18       
C           119.16      -72.26      50.19       
C           107.86      -84.66      55.31       
S           109.02      -84.52      54.02       
C           107.78      -83.48      55.98       
C           108.66      -82.51      55.46       
C           109.5       -82.94      54.34       
N           109.04      -81.19      55.69       
C           110.0       -80.81      54.77       
C           110.3       -81.88      53.97       
C           108.7       -80.32      56.76       
H           109.26      -79.38      56.83       
H           108.87      -80.87      57.69       
H           107.63091   -80.11192   56.71695    
H           110.63      -78.71      55.04       
H           107.09      -83.38      56.78       
C           110.77      -79.66      54.53       
S           111.51      -81.4       52.8        
C           111.64      -79.79      53.52       
C           100.44      -93.09      56.19       
C           100.73      -92.3       57.33       
C           101.19      -92.82      54.98       
C           102.02      -91.79      54.89       
C           102.43      -91.06      56.08       
C           101.78      -91.33      57.32       
N           102.7       -91.31      53.73       
C           103.59      -90.27      54.11       
C           103.39      -90.0       55.6        
O           104.49      -89.88      53.4        
C           102.42      -91.72      52.35       
C           104.0       -88.92      56.2        
C           105.16      -88.05      55.85       
C           105.26      -86.94      56.7        
N           104.36      -87.11      57.74       
C           103.61      -88.23      57.52       
C           106.12      -88.04      54.85       
O           102.82      -88.62      58.41       
C           104.03      -86.3       58.89       
H           101.88      -90.76      58.23       
H           100.96      -93.41      54.11       
H           100.18      -92.43      58.25       
H           106.08      -85.01      57.33       
H           106.28      -88.97      54.37       
H           107.79      -87.13      53.94       
H           103.18      -92.38      52.0        
H           101.47      -92.19      52.23       
H           102.30227   -90.83356   51.72673    
H           103.46      -86.81      59.59       
H           104.94415   -86.06615   59.43566    
H           103.63      -85.34      58.59       
C           107.07      -86.99      54.74       
C           106.12      -85.81      56.61       
C           106.99      -85.79      55.49       
C           95.29       -98.64      57.83       
S           96.13       -97.51      58.89       
C           95.61       -98.43      56.49       
C           96.59       -97.45      56.29       
C           97.0        -96.88      57.53       
N           97.2        -96.83      55.25       
C           97.93       -95.79      55.76       
C           98.02       -95.9       57.18       
C           97.34       -97.22      53.92       
H           97.78       -96.42      53.34       
H           96.44       -97.55      53.5        
H           98.05133    -98.04514   53.88443    
H           98.95       -94.49      54.34       
H           95.12       -99.05      55.67       
C           98.78       -94.75      55.34       
S           98.96       -94.59      57.93       
C           99.45       -94.17      56.31       
H           21.23       12.75       22.15       
H           94.69       -99.47      58.23       
