512

C           33.26       7.39        23.93       
C           32.93       8.19        24.98       
C           32.63       7.65        22.64       
C           31.78       8.78        22.53       
C           31.35       9.6         23.67       
C           31.92       9.2         24.89       
N           31.13       9.31        21.41       
C           30.29       10.34       21.69       
C           30.32       10.6        23.21       
O           29.61       10.66       20.77       
C           31.69       9.21        20.08       
C           29.65       11.64       23.81       
C           28.8        12.69       23.24       
C           28.36       13.55       24.33       
N           28.9        13.02       25.55       
C           29.55       11.87       25.34       
C           28.42       13.19       22.0        
O           29.81       11.11       26.28       
C           28.7        13.46       26.86       
H           31.76       9.85        25.77       
H           32.76       7.05        21.72       
H           33.47       8.09        25.89       
H           27.37       15.42       25.06       
H           28.67       12.62       21.13       
H           27.53       14.67       20.8        
H           32.32       8.33        19.98       
H           30.91       9.04        19.36       
H           32.23803    10.10932    19.79896    
H           27.82       14.11       26.9        
H           29.6008     13.92448    27.26114    
H           28.53       12.56       27.47       
C           27.73       14.41       21.86       
C           27.68       14.8        24.17       
C           27.3        15.2        22.87       
C           38.72       1.9         23.69       
S           38.04       2.82        22.4        
C           38.22       2.25        24.96       
C           37.15       3.21        24.83       
C           37.02       3.71        23.54       
N           36.22       3.85        25.72       
C           35.58       4.72        24.95       
C           35.97       4.63        23.63       
C           36.08       3.68        27.16       
H           35.09       4.03        27.54       
H           36.75       4.34        27.68       
H           36.08699    2.62465     27.43257    
H           34.2        6.04        26.15       
H           38.54       1.74        25.85       
C           34.61       5.73        25.21       
S           35.09       5.75        22.7        
C           34.26       6.35        24.1        
C           46.08       -6.5        22.23       
C           45.99       -5.72       23.4        
C           45.36       -6.09       21.1        
C           44.49       -4.98       21.27       
C           44.42       -4.14       22.38       
C           45.26       -4.52       23.46       
N           43.6        -4.47       20.3        
C           42.89       -3.38       20.85       
C           43.41       -3.02       22.23       
O           42.26       -2.66       20.12       
C           42.98       -5.2        19.23       
C           42.99       -1.94       23.02       
C           41.86       -0.94       22.88       
C           41.8        -0.25       24.12       
N           42.97       -0.49       24.92       
C           43.71       -1.48       24.37       
C           40.97       -0.51       21.87       
O           44.72       -1.92       24.84       
C           43.25       -0.05       26.31       
H           45.33       -4.01       24.42       
H           45.4        -6.67       20.21       
H           46.47       -6.0        24.33       
H           40.89       1.45        25.15       
H           40.98       -0.96       20.92       
H           39.06       0.45        21.46       
H           42.94       -4.73       18.29       
H           43.6        -6.09       18.91       
H           41.97254    -5.56635    19.42726    
H           43.13       1.03        26.33       
H           42.57608    -0.55       27.00565    
H           44.29       -0.26       26.54       
C           39.87       0.27        22.2        
C           40.83       0.72        24.34       
C           39.8        0.95        23.43       
C           51.22       -12.05      20.63       
S           50.47       -10.97      19.49       
C           50.56       -12.11      21.79       
C           49.61       -11.12      21.95       
C           49.45       -10.37      20.74       
N           48.86       -10.66      22.99       
C           48.18       -9.6        22.45       
C           48.43       -9.43       21.08       
C           48.59       -11.4       24.16       
H           48.25       -10.73      24.93       
H           49.56       -11.8       24.5        
H           47.81381    -12.14025   23.96595    
H           46.98       -8.55       24.04       
H           50.74       -12.91      22.51       
C           47.34       -8.55       23.01       
S           47.78       -7.95       20.51       
C           47.02       -7.59       22.11       
C           60.75       -16.79      16.86       
C           59.5        -17.4       16.89       
C           60.81       -15.43      17.28       
C           59.62       -14.77      17.76       
C           58.35       -15.4       17.85       
C           58.33       -16.75      17.36       
N           59.42       -13.34      18.01       
C           58.1        -13.15      18.38       
C           57.37       -14.47      18.49       
O           57.71       -12.01      18.73       
C           60.42       -12.32      17.9        
C           56.07       -14.65      19.03       
C           54.9        -13.85      19.42       
C           53.94       -14.56      20.09       
N           54.31       -15.9       20.11       
C           55.5        -16.05      19.36       
C           54.64       -12.46      19.39       
O           55.91       -17.17      19.17       
C           53.35       -16.98      20.18       
H           57.43       -17.19      17.27       
H           61.83       -14.95      17.21       
H           59.29       -18.36      16.32       
H           51.96       -14.65      21.0        
H           55.46       -11.76      19.18       
H           53.45       -10.92      19.82       
H           61.39       -12.84      17.78       
H           60.11       -11.63      17.06       
H           60.57476    -11.71502   18.79339    
H           53.72       -17.75      19.54       
H           53.12203    -17.29346   21.19876    
H           52.42       -16.6       19.74       
C           53.5        -11.94      19.83       
C           52.68       -14.01      20.5        
C           52.46       -12.69      20.29       
C           67.43       -19.57      13.94       
S           67.12       -18.57      15.33       
C           66.21       -19.79      13.19       
C           65.16       -19.28      13.81       
C           65.42       -18.56      15.03       
N           63.83       -19.2       13.64       
C           63.23       -18.6       14.71       
C           64.21       -18.11      15.58       
C           63.17       -19.6       12.37       
H           62.07       -19.84      12.54       
H           63.48       -20.61      12.09       
H           63.25498    -18.82807   11.60515    
H           61.0        -18.57      14.61       
H           66.18       -20.33      12.25       
C           61.87       -18.33      15.13       
S           63.44       -17.33      16.96       
C           61.88       -17.5       16.22       
C           78.25       -22.51      12.2        
C           77.9        -21.26      12.73       
C           77.14       -23.46      12.02       
C           75.83       -23.07      12.17       
C           75.51       -21.73      12.64       
C           76.59       -20.84      12.87       
N           74.65       -23.85      12.05       
C           73.51       -23.07      12.23       
C           73.99       -21.7       12.7        
O           72.39       -23.59      12.13       
C           74.66       -25.29      11.89       
C           73.11       -20.78      13.2        
C           71.65       -20.6       13.09       
C           71.23       -19.53      13.98       
N           72.41       -18.86      14.34       
C           73.54       -19.53      13.97       
C           70.59       -21.26      12.47       
O           74.62       -19.16      14.35       
C           72.42       -17.67      15.11       
H           76.37       -19.8       13.18       
H           77.37       -24.41      11.58       
H           78.68       -20.57      12.93       
H           69.74       -18.35      14.86       
H           70.74       -22.07      11.81       
H           68.44       -21.41      12.21       
H           75.61       -25.72      12.22       
H           73.89       -25.66      12.57       
H           74.44725    -25.57824   10.86056    
H           73.28       -17.6       15.77       
H           72.35731    -16.78544   14.47618    
H           71.65       -17.68      15.81       
C           69.21       -20.88      12.67       
C           69.91       -19.2       14.18       
C           68.84       -19.88      13.61       
C           85.89       -23.79      11.02       
S           85.06       -22.28      11.52       
C           84.96       -24.73      10.55       
C           83.59       -24.34      10.58       
C           83.52       -23.08      11.27       
N           82.34       -24.87      10.39       
C           81.46       -23.95      11.0        
C           82.12       -22.86      11.55       
C           81.81       -26.02      9.73        
H           80.88       -25.74      9.24        
H           81.69       -26.84      10.4        
H           82.48935    -26.3006    8.92511     
H           79.46       -24.83      10.95       
H           85.28       -25.7       10.32       
C           80.08       -23.98      11.19       
S           80.94       -21.8       12.21       
C           79.62       -22.91      11.88       
C           95.82       -24.79      15.7        
C           95.55       -23.67      14.96       
C           94.99       -25.95      15.51       
C           93.91       -25.83      14.61       
C           93.55       -24.65      13.93       
C           94.45       -23.58      14.09       
N           93.05       -26.82      14.19       
C           92.05       -26.34      13.32       
C           92.33       -24.82      13.15       
O           91.24       -27.14      12.8        
C           93.37       -28.21      14.21       
C           91.41       -23.99      12.47       
C           90.02       -24.23      12.05       
C           89.56       -23.06      11.43       
N           90.58       -22.16      11.34       
C           91.78       -22.61      11.92       
C           89.06       -25.24      12.2        
O           92.82       -21.98      11.88       
C           90.54       -20.85      10.72       
H           94.39       -22.68      13.45       
H           95.27       -26.87      15.98       
H           96.24       -22.82      15.05       
H           88.03       -21.91      10.68       
H           89.35       -26.12      12.59       
H           87.14       -25.98      11.84       
H           94.48       -28.35      14.05       
H           92.88       -28.81      13.49       
H           92.92272    -28.65728   15.09768    
H           90.05       -20.91      9.75        
H           90.0837     -20.10332   11.36989    
H           91.56       -20.5       10.49       
C           87.76       -25.11      11.72       
C           88.27       -22.91      11.0        
C           87.32       -23.9       11.17       
C           101.95      -26.37      20.33       
S           100.76      -27.4       19.66       
C           101.67      -25.06      20.03       
C           100.6       -24.86      19.16       
C           99.98       -26.05      18.85       
N           99.93       -23.75      18.59       
C           98.89       -24.36      17.82       
C           98.9        -25.7       18.01       
C           100.3       -22.34      18.65       
H           101.26      -22.24      19.17       
H           100.3       -21.86      17.72       
H           99.68519    -21.81302   19.37966    
H           97.75       -22.85      16.57       
H           102.29      -24.26      20.41       
C           97.88       -23.88      16.95       
S           97.47       -26.46      17.25       
C           96.97       -24.9       16.6        
C           109.47      -30.3       27.76       
C           109.62      -29.04      27.17       
C           108.39      -31.04      27.36       
C           107.46      -30.58      26.4        
C           107.54      -29.27      25.85       
C           108.65      -28.49      26.27       
N           106.3       -31.21      25.92       
C           105.68      -30.4       24.94       
C           106.45      -29.07      24.88       
O           104.74      -30.84      24.31       
C           105.91      -32.6       26.26       
C           105.99      -27.99      24.13       
C           104.71      -27.75      23.41       
C           104.95      -26.58      22.66       
N           106.05      -25.87      23.02       
C           106.81      -26.69      23.82       
C           103.49      -28.42      23.1        
O           107.97      -26.4       24.08       
C           106.64      -24.74      22.38       
H           108.69      -27.48      25.91       
H           108.29      -32.03      27.86       
H           110.43      -28.41      27.46       
H           104.24      -25.32      21.06       
H           103.18      -29.33      23.68       
H           101.65      -28.47      22.02       
H           106.78      -33.26      26.41       
H           105.44      -33.09      25.36       
H           105.18813   -32.59271   27.07667    
H           107.4       -24.31      23.0        
H           106.96621   -24.89601   21.35173    
H           105.84      -24.02      22.36       
C           102.61      -27.97      22.11       
C           104.02      -26.17      21.64       
C           102.87      -26.9       21.27       
C           113.94      -33.53      33.27       
S           112.4       -34.05      32.54       
C           114.41      -32.36      32.67       
C           113.48      -31.76      31.74       
C           112.37      -32.63      31.53       
N           113.33      -30.61      30.94       
C           112.16      -30.8       30.21       
C           111.58      -32.01      30.54       
C           114.35      -29.69      30.66       
H           115.34      -29.97      30.97       
H           114.42      -29.65      29.61       
H           114.20679   -28.8021    31.2758     
H           111.74      -29.15      28.8        
H           115.27      -31.84      33.04       
C           111.52      -30.12      29.22       
S           110.14      -32.3       29.6        
C           110.35      -30.76      28.79       
C           118.47      -40.58      40.68       
C           119.17      -39.66      39.97       
C           117.03      -40.43      40.65       
C           116.5       -39.43      39.83       
C           117.21      -38.52      39.1        
C           118.64      -38.67      39.25       
N           115.12      -39.34      39.61       
C           114.91      -38.4       38.6        
C           116.26      -37.72      38.29       
O           113.74      -37.93      38.38       
C           113.97      -39.88      40.28       
C           116.4       -36.64      37.46       
C           115.57      -35.93      36.43       
C           116.21      -34.85      35.93       
N           117.37      -34.76      36.58       
C           117.64      -35.8       37.48       
C           114.31      -36.14      35.86       
O           118.49      -35.72      38.33       
C           118.36      -33.77      36.36       
H           119.35      -38.03      38.79       
H           116.45      -41.26      41.12       
H           120.23      -39.54      40.02       
H           116.36      -33.21      34.46       
H           113.75      -36.9       36.22       
H           112.92      -35.71      34.39       
H           113.27      -39.08      40.62       
H           114.29      -40.45      41.16       
H           113.51838   -40.64211   39.64491    
H           118.72      -33.34      37.26       
H           119.16602   -34.07573   35.69295    
H           117.86      -33.01      35.86       
C           113.84      -35.35      34.85       
C           115.75      -34.0       34.91       
C           114.49      -34.31      34.33       
C           121.3       -47.39      43.58       
S           119.74      -46.65      43.89       
C           121.97      -46.73      42.6        
C           121.4       -45.42      42.26       
C           120.18      -45.26      42.91       
N           121.7       -44.33      41.47       
C           120.68      -43.43      41.59       
C           119.72      -43.94      42.5        
C           122.85      -44.13      40.6        
H           122.88      -43.01      40.39       
H           122.69      -44.58      39.65       
H           123.77308   -44.53643   41.01332    
H           120.94      -41.77      40.19       
H           122.94      -47.05      42.25       
C           120.33      -42.22      40.94       
S           118.37      -42.81      42.57       
C           119.1       -41.75      41.35       
C           121.5       -58.07      47.03       
C           120.49      -57.19      47.29       
C           122.7       -57.63      46.39       
C           122.87      -56.29      46.15       
C           121.83      -55.34      46.46       
C           120.63      -55.83      47.01       
N           123.9       -55.67      45.47       
C           123.52      -54.33      45.19       
C           122.28      -53.94      45.98       
O           124.36      -53.65      44.58       
C           124.96      -56.32      44.85       
C           121.69      -52.68      45.98       
C           121.87      -51.39      45.21       
C           120.79      -50.49      45.61       
N           120.03      -51.07      46.65       
C           120.53      -52.34      46.97       
C           122.85      -50.79      44.42       
O           120.08      -52.95      47.9        
C           118.67      -50.75      47.02       
H           119.76      -55.2       47.18       
H           123.48      -58.38      46.26       
H           119.6       -57.54      47.69       
H           119.81      -48.68      45.59       
H           123.84      -51.24      44.25       
H           123.29      -49.25      43.1        
H           125.43      -55.79      44.05       
H           124.8       -57.35      44.46       
H           125.84997   -56.41406   45.47226    
H           118.07      -50.43      46.08       
H           118.53545   -49.99226   47.7919     
H           118.11      -51.55      47.43       
C           122.58      -49.52      43.89       
C           120.58      -49.26      45.09       
C           121.48      -48.74      44.16       
C           118.3       -64.75      48.98       
S           118.64      -63.36      49.98       
C           118.86      -64.65      47.74       
C           119.64      -63.5       47.55       
C           119.53      -62.64      48.63       
N           120.26      -62.92      46.49       
C           120.63      -61.65      46.92       
C           120.22      -61.49      48.24       
C           120.57      -63.6       45.29       
H           121.0       -62.86      44.66       
H           119.7       -63.97      44.72       
H           121.24995   -64.4326    45.4704     
H           121.57      -60.29      45.39       
H           118.69      -65.37      47.01       
C           121.23      -60.47      46.39       
S           120.56      -59.9       48.84       
C           121.28      -59.45      47.35       
C           112.3       -73.02      53.84       
C           112.86      -72.1       54.67       
C           112.42      -72.97      52.46       
C           113.03      -71.88      51.83       
C           113.52      -70.79      52.63       
C           113.42      -70.97      54.04       
N           112.98      -71.59      50.44       
C           113.77      -70.41      50.24       
C           114.22      -69.9       51.65       
O           113.91      -69.91      49.11       
C           112.36      -72.38      49.38       
C           115.03      -68.74      51.81       
C           115.93      -67.97      50.89       
C           116.33      -66.77      51.55       
N           115.84      -66.82      52.92       
C           115.1       -67.98      53.11       
C           116.46      -68.06      49.59       
O           114.55      -68.12      54.12       
C           115.74      -65.66      53.76       
H           113.9       -70.23      54.67       
H           111.97      -73.64      51.8        
H           112.82      -72.11      55.74       
H           117.28      -64.82      51.65       
H           116.3       -68.94      48.95       
H           117.6       -67.13      47.97       
H           111.51      -72.96      49.82       
H           112.01      -71.75      48.59       
H           113.07409   -73.0868    48.95738    
H           114.97      -65.85      54.5        
H           116.62301   -65.51901   54.3833     
H           115.48      -64.8       53.22       
C           117.24      -67.05      49.04       
C           117.04      -65.71      50.99       
C           117.49      -65.83      49.68       
C           108.45      -79.52      56.0        
S           108.79      -78.76      54.45       
C           108.88      -78.65      57.01       
C           109.5       -77.45      56.58       
C           109.51      -77.35      55.18       
N           110.11      -76.33      57.2        
C           110.57      -75.58      56.08       
C           110.24      -76.22      54.86       
C           110.04      -75.9       58.62       
H           110.65      -74.99      58.81       
H           110.35      -76.59      59.36       
H           109.01054   -75.68847   58.90909    
H           111.63      -73.62      56.57       
H           108.67      -78.91      58.05       
C           111.26      -74.36      55.82       
S           110.8       -75.39      53.45       
C           111.52      -74.14      54.48       
C           102.93      -89.32      56.22       
C           102.56      -88.29      57.05       
C           104.03      -89.13      55.37       
C           104.84      -87.98      55.48       
C           104.44      -86.88      56.35       
C           103.3       -87.1       57.14       
N           105.9       -87.63      54.61       
C           106.26      -86.29      54.91       
C           105.41      -85.76      56.09       
O           106.87      -85.71      54.03       
C           106.54      -88.52      53.7        
C           105.65      -84.46      56.55       
C           106.64      -83.38      56.27       
C           106.26      -82.23      57.01       
N           105.21      -82.49      57.82       
C           104.74      -83.75      57.61       
C           107.78      -83.19      55.46       
O           103.83      -84.23      58.29       
C           104.64      -81.66      58.78       
H           102.93      -86.26      57.74       
H           104.33      -89.85      54.68       
H           101.73      -88.53      57.7        
H           106.6       -80.24      57.63       
H           108.2       -84.05      54.99       
H           109.18      -81.82      54.66       
H           106.44      -89.52      54.01       
H           106.07      -88.39      52.71       
H           107.6257    -88.45529   53.6281     
H           103.72      -82.0       59.04       
H           105.19329   -81.5091    59.70693    
H           104.47      -80.69      58.36       
C           108.38      -81.92      55.34       
C           106.94      -81.09      56.99       
C           107.93      -80.86      56.13       
C           99.18       -96.21      56.84       
S           98.57       -94.56      56.73       
C           100.57      -96.14      56.73       
C           101.12      -94.78      56.6        
C           100.12      -93.81      56.63       
N           102.39      -94.31      56.38       
C           102.19      -92.91      56.38       
C           100.84      -92.6       56.53       
C           103.6       -95.01      56.15       
H           104.33      -94.25      56.0        
H           103.5       -95.61      55.24       
H           103.92206   -95.61668   56.99635    
H           104.12      -91.79      56.08       
H           101.19      -96.97      56.66       
C           103.04      -91.79      56.24       
S           100.58      -90.87      56.4        
C           102.33      -90.6       56.26       
H           27.24       16.23       22.6        
H           98.67       -97.02      56.35       
