512

C           30.4        17.28       33.13       
C           30.23       15.97       32.77       
C           29.35       18.13       32.87       
C           28.18       17.72       32.27       
C           28.04       16.44       31.77       
C           29.1        15.54       32.1        
N           27.22       18.55       31.69       
C           26.31       17.84       30.9        
C           26.76       16.36       30.94       
O           25.42       18.3        30.32       
C           27.26       19.97       31.89       
C           26.05       15.33       30.26       
C           24.9        15.24       29.32       
C           24.77       13.98       28.7        
N           25.54       13.15       29.53       
C           26.41       13.86       30.35       
C           23.82       16.14       29.01       
O           27.21       13.24       31.0        
C           25.24       11.68       29.58       
H           29.0        14.56       31.81       
H           29.45       19.16       33.05       
H           30.99       15.23       32.97       
H           23.79       12.71       27.1        
H           23.67       17.02       29.59       
H           22.13       16.51       27.77       
H           27.74       20.23       32.89       
H           27.92       20.38       31.14       
H           26.2608     20.40116    31.95159    
H           25.28       11.13       28.64       
H           24.30579    11.50885    30.11485    
H           26.05       11.25       30.17       
C           22.96       15.88       27.97       
C           23.87       13.68       27.63       
C           22.98       14.68       27.23       
C           37.15       17.93       37.06       
S           36.78       17.03       35.57       
C           36.06       18.72       37.56       
C           34.94       18.53       36.7        
C           35.12       17.61       35.68       
N           33.67       18.98       36.74       
C           33.02       18.37       35.64       
C           33.87       17.48       35.02       
C           33.13       20.12       37.52       
H           32.25       20.48       36.96       
H           33.9        20.83       37.45       
H           32.91169    19.79981    38.53878    
H           30.94       19.02       35.31       
H           36.23       19.3        38.49       
C           31.78       18.4        34.99       
S           33.18       16.71       33.66       
C           31.67       17.54       33.93       
C           47.7        17.83       40.89       
C           47.05       16.73       40.44       
C           47.11       19.02       40.68       
C           45.77       19.03       40.23       
C           45.09       17.9        39.73       
C           45.81       16.75       39.84       
N           44.93       20.15       40.0        
C           43.7        19.78       39.44       
C           43.75       18.27       39.23       
O           42.84       20.62       39.22       
C           45.35       21.58       39.99       
C           42.78       17.6        38.48       
C           41.31       17.85       38.38       
C           40.75       16.85       37.55       
N           41.74       15.93       37.21       
C           42.98       16.31       37.73       
C           40.43       18.85       38.85       
O           43.95       15.55       37.6        
C           41.59       14.7        36.38       
H           45.34       15.83       39.62       
H           47.62       19.91       40.83       
H           47.54       15.75       40.61       
H           39.16       16.08       36.37       
H           40.81       19.58       39.45       
H           38.5        19.6        38.86       
H           44.48       22.21       40.22       
H           46.1        21.78       40.8        
H           45.74128    21.87168    39.01536    
H           40.57       14.3        36.51       
H           41.78408    14.83658    35.31615    
H           42.25       14.01       36.87       
C           39.06       18.73       38.54       
C           39.42       16.87       37.08       
C           38.53       17.85       37.59       
C           55.37       18.0        42.33       
S           54.2        19.23       41.87       
C           54.7        16.79       42.53       
C           53.28       16.87       42.25       
C           52.86       18.16       41.83       
N           52.13       16.04       42.28       
C           51.07       16.8        41.92       
C           51.47       18.1        41.6        
C           51.99       14.64       42.63       
H           51.04       14.27       42.28       
H           52.02       14.47       43.69       
H           52.74479    13.99914    42.17428    
H           49.19       15.69       41.94       
H           55.18       15.83       42.87       
C           49.72       16.61       41.73       
S           50.15       19.06       41.17       
C           49.03       17.69       41.32       
C           66.06       20.82       44.8        
C           65.73       19.46       44.52       
C           65.12       21.69       44.27       
C           63.81       21.27       43.91       
C           63.43       19.91       43.86       
C           64.48       19.02       44.13       
N           62.71       22.14       43.72       
C           61.52       21.38       43.5        
C           61.95       19.89       43.59       
O           60.5        21.93       43.25       
C           62.71       23.53       44.1        
C           61.04       18.86       43.3        
C           59.55       18.93       43.25       
C           59.17       17.61       42.9        
N           60.25       16.71       43.08       
C           61.36       17.42       43.43       
C           58.45       19.85       43.5        
O           62.46       16.81       43.53       
C           60.27       15.28       42.69       
H           64.32       18.0        43.96       
H           65.28       22.83       44.44       
H           66.58       18.71       44.68       
H           57.46       16.36       42.47       
H           58.59       20.77       43.94       
H           56.44       20.28       43.27       
H           63.61       23.74       44.64       
H           62.7        24.02       43.1        
H           61.8147     23.83313    44.64282    
H           59.37       14.76       43.12       
H           60.13774    15.13381    41.61798    
H           61.1        14.86       43.21       
C           57.16       19.52       43.08       
C           57.8        17.36       42.54       
C           56.78       18.32       42.5        
C           72.61       23.94       47.52       
S           70.9        24.37       47.82       
C           72.73       22.86       46.71       
C           71.49       22.32       46.3        
C           70.4        23.04       46.77       
N           71.06       21.19       45.55       
C           69.67       21.27       45.56       
C           69.25       22.42       46.24       
C           71.92       20.13       45.08       
H           71.36       19.39       44.62       
H           72.31       19.58       45.86       
H           72.6807     20.44019    44.36361    
H           68.59       19.63       44.38       
H           73.73       22.56       46.33       
C           68.57       20.56       44.93       
S           67.55       22.61       46.25       
C           67.39       21.17       45.28       
C           79.8        28.73       54.69       
C           78.43       29.15       54.56       
C           80.32       28.01       53.59       
C           79.48       27.61       52.57       
C           78.06       27.9        52.46       
C           77.57       28.79       53.48       
N           79.89       26.7        51.54       
C           78.77       26.38       50.81       
C           77.53       27.2        51.25       
O           78.89       25.67       49.82       
C           81.09       25.94       51.57       
C           76.24       27.17       50.7        
C           75.61       26.22       49.75       
C           74.31       26.65       49.54       
N           74.22       27.93       50.09       
C           75.18       28.2        50.92       
C           75.91       25.04       49.14       
O           75.28       29.31       51.54       
C           73.14       28.83       49.81       
H           76.52       29.03       53.59       
H           81.37       27.75       53.56       
H           78.06       29.84       55.33       
H           72.45       26.6        48.61       
H           76.71       24.5        49.36       
H           75.16       23.28       48.17       
H           81.57       25.78       50.64       
H           81.86       26.45       52.14       
H           80.89446    24.99124    52.06973    
H           72.76       28.71       48.81       
H           72.26602    28.73983    50.45508    
H           73.45       29.82       49.98       
C           74.92       24.31       48.42       
C           73.36       26.02       48.77       
C           73.65       24.8        48.14       
C           84.66       30.71       60.27       
S           84.93       29.74       58.85       
C           83.36       30.99       60.46       
C           82.54       30.39       59.49       
C           83.26       29.67       58.54       
N           81.16       30.19       59.3        
C           81.08       29.63       58.01       
C           82.38       29.37       57.53       
C           80.02       30.46       60.17       
H           79.17       29.96       59.75       
H           79.79       31.53       60.23       
H           80.18349    29.96954    61.12959    
H           78.99       29.31       57.23       
H           83.13       31.65       61.26       
C           80.06       29.23       57.1        
S           82.39       28.87       55.91       
C           80.64       28.95       55.91       
C           93.52       33.25       66.98       
C           93.77       32.6        65.76       
C           92.29       33.77       67.26       
C           91.24       33.51       66.37       
C           91.4        32.76       65.15       
C           92.76       32.44       64.82       
N           89.96       33.88       66.53       
C           89.21       33.34       65.56       
C           90.06       32.57       64.55       
O           88.03       33.58       65.53       
C           89.55       34.88       67.45       
C           89.5        32.0        63.39       
C           88.1        31.78       62.88       
C           88.16       31.18       61.57       
N           89.45       31.15       61.22       
C           90.29       31.4        62.24       
C           86.76       31.93       63.23       
O           91.51       31.35       62.12       
C           90.02       30.7        59.94       
H           92.92       31.94       63.92       
H           92.2        34.34       68.14       
H           94.8        32.26       65.54       
H           87.32       30.39       59.75       
H           86.46       32.55       64.1        
H           84.72       31.86       62.81       
H           88.71       35.43       67.05       
H           90.39       35.56       67.64       
H           89.22969    34.37463    68.3611     
H           89.61       29.82       59.63       
H           89.84466    31.38733    59.1124     
H           91.1        30.56       60.1        
C           85.65       31.56       62.42       
C           87.13       30.79       60.75       
C           85.81       31.07       61.13       
C           99.99       32.02       71.03       
S           98.35       31.87       71.4        
C           100.14      32.75       69.86       
C           98.88       33.05       69.22       
C           97.78       32.6        69.97       
N           98.4        33.64       68.08       
C           97.01       33.58       68.1        
C           96.63       32.92       69.26       
C           99.17       34.04       66.9        
H           98.75       34.9        66.38       
H           100.19      34.29       67.24       
H           99.2667     33.11766    66.32726    
H           96.02       34.25       66.21       
H           101.09      32.93       69.43       
C           95.95       33.85       67.22       
S           94.92       32.87       69.37       
C           94.74       33.46       67.73       
C           107.6       28.96       78.85       
C           107.9       29.97       77.91       
C           106.3       28.53       78.85       
C           105.37      28.86       77.9        
C           105.63      29.83       76.94       
C           106.92      30.44       77.03       
N           104.1       28.36       77.77       
C           103.5       28.89       76.66       
C           104.45      29.91       76.01       
O           102.38      28.71       76.38       
C           103.26      27.96       78.92       
C           104.11      30.53       74.77       
C           102.88      30.76       73.93       
C           103.24      31.45       72.75       
N           104.65      31.55       72.7        
C           105.24      31.09       73.87       
C           101.5       30.35       73.96       
O           106.41      31.11       74.07       
C           105.48      31.89       71.53       
H           107.24      31.16       76.33       
H           106.15      27.76       79.56       
H           108.88      30.4        77.9        
H           102.72      32.24       70.78       
H           101.15      29.79       74.76       
H           99.59       30.53       73.15       
H           102.2       27.87       78.65       
H           103.32      28.65       79.77       
H           103.48967   26.95781    79.2819     
H           105.13      31.47       70.63       
H           105.49357   32.96869    71.37396    
H           106.54      31.61       71.68       
C           100.64      30.71       72.95       
C           102.39      31.79       71.68       
C           101.03      31.44       71.87       
C           112.0       24.4        83.24       
S           110.27      24.58       83.02       
C           112.71      25.49       82.69       
C           111.84      26.32       81.89       
C           110.51      25.95       82.03       
N           111.94      27.34       80.99       
C           110.66      27.75       80.65       
C           109.77      26.87       81.27       
C           113.21      28.0        80.72       
H           113.97      27.21       80.59       
H           113.2       28.6        79.81       
H           113.49532   28.57063    81.60378    
H           110.6       29.19       78.99       
H           113.83      25.61       82.68       
C           110.01      28.61       79.71       
S           108.17      27.36       81.06       
C           108.65      28.37       79.71       
C           115.5       14.21       85.94       
C           114.31      14.46       85.25       
C           116.46      15.22       86.08       
C           116.11      16.54       85.84       
C           114.78      16.79       85.38       
C           113.93      15.74       85.07       
N           116.8       17.76       85.93       
C           116.01      18.79       85.53       
C           114.58      18.29       85.28       
O           116.47      19.95       85.51       
C           118.02      17.99       86.66       
C           113.5       19.14       84.93       
C           113.41      20.49       84.49       
C           112.03      20.88       84.46       
N           111.22      19.8        84.76       
C           112.02      18.7        84.98       
C           114.32      21.43       84.09       
O           111.49      17.73       85.43       
C           109.79      19.88       85.09       
H           112.99      15.92       84.55       
H           117.44      15.1        86.54       
H           113.61      13.68       85.08       
H           110.55      22.28       84.01       
H           115.41      21.25       83.99       
H           114.59      23.58       83.71       
H           117.89      17.51       87.61       
H           118.21      19.08       86.65       
H           118.82743   17.48622    86.12862    
H           109.36      18.9        85.08       
H           109.59814   20.38706    86.03561    
H           109.37      20.34       84.21       
C           113.85      22.74       83.82       
C           111.59      22.1        84.11       
C           112.5       23.09       83.77       
C           116.98      6.72        87.63       
S           115.84      7.42        86.46       
C           117.69      7.7         88.24       
C           117.29      9.0         87.95       
C           116.22      9.02        86.98       
N           117.48      10.27       88.41       
C           116.71      11.09       87.59       
C           115.87      10.4        86.71       
C           118.51      10.74       89.31       
H           118.37      11.73       89.6        
H           119.52      10.73       88.79       
H           118.56016   10.18825    90.2487     
H           116.96      13.28       88.02       
H           118.34      7.42        89.05       
C           116.52      12.49       87.4        
S           114.94      11.42       85.72       
C           115.67      12.86       86.43       
C           112.98      -3.21       90.41       
C           113.49      -2.32       91.34       
C           113.27      -2.93       89.07       
C           114.04      -1.87       88.72       
C           114.53      -0.98       89.63       
C           114.27      -1.25       91.0        
N           114.31      -1.46       87.44       
C           115.08      -0.32       87.46       
C           115.23      0.12        88.92       
O           115.43      0.15        86.45       
C           113.46      -1.72       86.23       
C           115.99      1.29        89.24       
C           116.29      2.56        88.56       
C           116.94      3.45        89.46       
N           117.19      2.79        90.66       
C           116.59      1.56        90.61       
C           115.99      3.18        87.35       
O           116.78      0.73        91.47       
C           118.22      3.33        91.57       
H           114.59      -0.56       91.74       
H           112.89      -3.58       88.3        
H           113.2       -2.57       92.38       
H           117.58      5.53        89.96       
H           115.61      2.58        86.6        
H           116.26      4.81        85.92       
H           113.37      -0.79       85.69       
H           112.47      -2.12       86.56       
H           113.91897   -2.42611    85.53801    
H           117.94      4.36        91.75       
H           119.24353   3.18584     91.22402    
H           118.08      2.96        92.52       
C           116.24      4.49        87.04       
C           117.13      4.83        89.23       
C           116.86      5.32        87.94       
C           108.29      -9.19       92.24       
S           109.48      -8.97       90.95       
C           108.17      -8.06       93.02       
C           109.03      -7.03       92.55       
C           109.87      -7.35       91.46       
N           109.3       -5.69       92.96       
C           110.36      -5.25       92.12       
C           110.7       -6.25       91.21       
C           108.87      -5.0        94.15       
H           109.13      -3.95       94.1        
H           109.34      -5.28       95.06       
H           107.79543   -5.10965    94.2962     
H           111.08      -3.12       92.46       
H           107.52      -8.02       93.91       
C           111.16      -4.07       91.91       
S           111.92      -5.74       90.07       
C           112.04      -4.21       90.86       
C           100.77      -16.98      90.99       
C           101.9       -16.84      90.21       
C           100.73      -16.24      92.21       
C           101.86      -15.51      92.55       
C           103.07      -15.44      91.8        
C           103.0       -16.18      90.6        
N           102.02      -14.74      93.69       
C           103.31      -14.22      93.77       
C           104.01      -14.52      92.51       
O           103.74      -13.59      94.8        
C           100.78      -14.27      94.31       
C           105.31      -14.03      92.19       
C           106.1       -12.85      92.56       
C           107.06      -12.64      91.54       
N           107.04      -13.71      90.7        
C           106.12      -14.68      91.11       
C           106.01      -11.86      93.57       
O           106.12      -15.83      90.6        
C           107.89      -13.85      89.49       
H           103.89      -16.26      90.0        
H           99.9        -16.42      92.91       
H           101.94      -17.31      89.22       
H           108.62      -11.48      90.69       
H           105.29      -11.9       94.35       
H           106.6       -9.85       94.26       
H           99.9        -14.54      93.72       
H           100.58      -14.63      95.31       
H           100.73785   -13.18118   94.2819     
H           107.94      -14.93      89.32       
H           107.62684   -13.28811   88.59383    
H           108.92      -13.64      89.69       
C           106.71      -10.66      93.47       
C           107.87      -11.53      91.54       
C           107.56      -10.46      92.4        
C           94.12       -20.4       88.79       
S           95.04       -20.67      90.22       
C           94.71       -19.47      88.03       
C           95.89       -19.01      88.58       
C           96.22       -19.51      89.8        
N           96.86       -18.16      88.1        
C           97.78       -18.12      89.09       
C           97.41       -18.85      90.22       
C           96.85       -17.28      86.96       
H           97.72       -16.7       87.05       
H           96.04       -16.61      86.87       
H           96.85       -17.90656   86.06808    
H           99.57       -16.98      88.41       
H           94.23       -19.2       87.11       
C           99.07       -17.59      89.24       
S           98.65       -18.77      91.48       
C           99.61       -17.66      90.48       
C           85.35       -27.07      85.89       
C           85.82       -26.16      85.03       
C           85.87       -27.13      87.2        
C           86.91       -26.22      87.55       
C           87.48       -25.33      86.63       
C           86.88       -25.31      85.37       
N           87.55       -26.09      88.78       
C           88.57       -25.1       88.71       
C           88.6        -24.59      87.27       
O           89.35       -24.86      89.57       
C           86.97       -26.62      90.0        
C           89.59       -23.59      86.94       
C           90.56       -22.77      87.74       
C           91.39       -22.17      86.76       
N           90.88       -22.37      85.43       
C           89.76       -23.17      85.51       
C           90.93       -22.57      89.11       
O           89.31       -23.67      84.47       
C           91.17       -21.63      84.2        
H           87.25       -24.59      84.66       
H           85.48       -27.85      87.94       
H           85.44       -26.08      84.0        
H           93.2        -21.01      86.34       
H           90.24       -22.86      89.92       
H           92.3        -21.63      90.41       
H           86.13       -27.24      89.68       
H           87.64       -27.32      90.41       
H           86.64654    -25.82213   90.66849    
H           90.96       -22.22      83.31       
H           90.63332    -20.69081   84.06583    
H           92.18       -21.43      84.17       
C           92.04       -21.71      89.36       
C           92.53       -21.44      87.1        
C           92.9        -21.15      88.43       
C           79.23       -30.94      83.2        
S           79.86       -29.38      82.76       
C           80.04       -31.59      84.04       
C           81.12       -30.82      84.54       
C           81.17       -29.56      83.91       
N           82.17       -30.94      85.4        
C           82.89       -29.76      85.31       
C           82.34       -28.86      84.33       
C           82.21       -31.77      86.59       
H           82.96       -31.38      87.28       
H           82.52       -32.76      86.19       
H           81.21615    -31.82639   87.03406    
H           84.6        -29.63      86.69       
H           79.88       -32.58      84.29       
C           83.99       -29.19      85.93       
S           83.26       -27.41      84.16       
C           84.25       -27.92      85.49       
H           22.13       14.37       26.67       
H           78.49       -31.45      82.57       
