612

C           -82.64383   0.76875     2e-05       
C           -83.7898    -0.03017    1e-05       
N           -83.07997   2.09428     2e-05       
C           -84.51128   2.17926     2e-05       
C           -84.22388   -1.41134    -0.0        
O           -83.62832   -2.48419    0.0         
O           -85.11158   3.25168     2e-05       
C           -86.44841   -2.54111    -1e-05      
C           -82.29395   3.31511     6e-05       
C           -81.46624   4.60071     0.0001      
H           -81.88123   3.04937     0.97327     
H           -82.70666   3.58087     -0.97315    
H           -86.85727   -2.27562    -0.97492    
C           -87.2811    -3.82348    -1e-05      
H           -86.03956   -2.8066     0.97491     
N           -85.65745   -1.323      0.0         
C           -84.9408    0.79905     0.0         
C           -86.08782   0.0         -0.0        
C           -78.77209   0.0         -0.0        
C           -79.49243   -1.19375    2e-05       
S           -79.87216   1.36939     -1e-05      
H           -81.60102   -1.82992    3e-05       
H           -78.99868   -2.16107    -1e-05      
C           -80.88128   -1.01742    2e-05       
C           -81.28012   0.31931     2e-05       
C           -80.63853   5.8863      0.00013     
C           -79.81082   7.17189     0.00018     
C           -78.98312   8.45748     0.00021     
C           -78.15541   9.74306     0.00026     
C           -77.32771   11.02866    0.0003      
C           -76.49999   12.31424    0.00033     
C           -75.67228   13.59983    0.00037     
C           -74.84458   14.88543    0.00041     
C           -74.01687   16.17102    0.00045     
C           -73.18916   17.45661    0.00049     
C           -80.8873    4.22792     1.36527     
C           -80.30836   3.85514     2.73044     
C           -79.72942   3.48236     4.09562     
C           -79.15048   3.10957     5.4608      
C           -78.57154   2.73679     6.82597     
C           -77.9926    2.364       8.19115     
C           -77.41366   1.99122     9.55633     
C           -76.83472   1.61844     10.92149    
C           -88.11379   -5.10585    -2e-05      
C           -88.94648   -6.38822    -3e-05      
C           -89.77916   -7.67059    -4e-05      
C           -90.61185   -8.95295    -4e-05      
C           -91.44454   -10.23532   -5e-05      
C           -92.27723   -11.51769   -6e-05      
C           -93.10992   -12.80006   -7e-05      
C           -93.9426    -14.08243   -7e-05      
C           -94.77529   -15.3648    -8e-05      
C           -95.60798   -16.64717   -9e-05      
C           -87.85462   -3.45106    -1.36757    
C           -88.42814   -3.07864    -2.73513    
C           -89.00167   -2.70623    -4.10269    
C           -89.57519   -2.33381    -5.47025    
C           -90.14871   -1.9614     -6.83781    
C           -90.72223   -1.58898    -8.20537    
C           -91.29575   -1.21657    -9.57293    
C           -91.86927   -0.84415    -10.94049   
C           -73.89138   -0.76875    0.00152     
C           -75.03735   0.03017     -7e-05      
N           -74.32751   -2.09427    0.00418     
C           -75.75883   -2.17926    0.00436     
C           -75.47142   1.41133     -0.00283    
O           -74.87587   2.48418     -0.00499    
O           -76.35912   -3.25168    0.0065      
C           -77.69596   2.5411      -0.00509    
C           -73.54149   -3.31511    0.0066      
C           -72.71378   -4.6007     0.00913     
H           -73.12878   -3.05132    -0.96715    
H           -73.95421   -3.57891    0.98034     
H           -78.10481   2.27757     0.97035     
C           -78.52865   3.82347     -0.00766    
H           -77.2871    2.80463     -0.98054    
N           -76.905     1.323       -0.00266    
C           -76.18835   -0.79904    0.0016      
C           -77.33536   0.0         -0.0        
C           -70.01963   0.0         -0.0        
C           -70.73997   1.19375     -0.00241    
S           -71.11971   -1.36939    0.00276     
H           -72.84857   1.82992     -0.0037     
H           -70.24623   2.16107     -0.00433    
C           -72.12883   1.01742     -0.00206    
C           -72.52767   -0.31931    0.00062     
C           -71.88608   -5.88629    0.01168     
C           -71.05837   -7.17188    0.01421     
C           -70.23066   -8.45747    0.01676     
C           -69.40296   -9.74305    0.0193      
C           -68.57525   -11.02863   0.02183     
C           -67.74754   -12.31422   0.02438     
C           -66.91983   -13.59981   0.02692     
C           -66.09212   -14.8854    0.02946     
C           -65.26442   -16.17099   0.032       
C           -64.43671   -17.45658   0.03454     
C           -72.13485   -4.23065    -1.35678    
C           -71.55591   -3.86061    -2.7227     
C           -70.97696   -3.49057    -4.08862    
C           -70.39803   -3.12053    -5.45455    
C           -69.81909   -2.75048    -6.82047    
C           -69.24015   -2.38044    -8.18639    
C           -68.6612    -2.0104     -9.55231    
C           -68.08227   -1.64036    -10.91822   
C           -79.36133   5.10584     -0.01023    
C           -80.19402   6.3882      -0.01279    
C           -81.02671   7.67057     -0.01536    
C           -81.8594    8.95294     -0.01792    
C           -82.69209   10.2353     -0.02049    
C           -83.52477   11.51767    -0.02306    
C           -84.35746   12.80004    -0.02562    
C           -85.19015   14.08241    -0.02819    
C           -86.02284   15.36477    -0.03075    
C           -86.85552   16.64714    -0.03332    
C           -79.10217   3.4538      1.36064     
C           -79.67569   3.08413     2.72895     
C           -80.24921   2.71446     4.09725     
C           -80.82273   2.34479     5.46556     
C           -81.39625   1.97512     6.83386     
C           -81.96978   1.60544     8.20217     
C           -82.5433    1.23577     9.57047     
C           -83.11682   0.8661      10.93878    
C           -65.13892   -0.76875    0.00152     
C           -66.28489   0.03017     -7e-05      
N           -65.57506   -2.09427    0.00418     
C           -67.00637   -2.17926    0.00436     
C           -66.71897   1.41133     -0.00283    
O           -66.12341   2.48418     -0.00499    
O           -67.60667   -3.25168    0.0065      
C           -68.9435    2.5411      -0.00509    
C           -64.78904   -3.31511    0.0066      
C           -63.96133   -4.6007     0.00913     
H           -64.37632   -3.05132    -0.96715    
H           -65.20176   -3.57891    0.98034     
H           -69.35236   2.27757     0.97035     
C           -69.77619   3.82347     -0.00766    
H           -68.53465   2.80463     -0.98054    
N           -68.15254   1.323       -0.00266    
C           -67.43589   -0.79904    0.0016      
C           -68.58291   0.0         -0.0        
C           -61.26718   0.0         -0.0        
C           -61.98752   1.19375     -0.00241    
S           -62.36725   -1.36939    0.00276     
H           -64.09611   1.82992     -0.0037     
H           -61.49377   2.16107     -0.00433    
C           -63.37637   1.01742     -0.00206    
C           -63.77521   -0.31931    0.00062     
C           -63.13362   -5.88629    0.01168     
C           -62.30591   -7.17188    0.01421     
C           -61.47821   -8.45747    0.01676     
C           -60.65051   -9.74305    0.0193      
C           -59.8228    -11.02863   0.02183     
C           -58.99508   -12.31422   0.02438     
C           -58.16738   -13.59981   0.02692     
C           -57.33967   -14.8854    0.02946     
C           -56.51196   -16.17099   0.032       
C           -55.68425   -17.45658   0.03454     
C           -63.38239   -4.23065    -1.35678    
C           -62.80345   -3.86061    -2.7227     
C           -62.22451   -3.49057    -4.08862    
C           -61.64557   -3.12053    -5.45455    
C           -61.06663   -2.75048    -6.82047    
C           -60.48769   -2.38044    -8.18639    
C           -59.90875   -2.0104     -9.55231    
C           -59.32981   -1.64036    -10.91822   
C           -70.60888   5.10584     -0.01023    
C           -71.44157   6.3882      -0.01279    
C           -72.27426   7.67057     -0.01536    
C           -73.10694   8.95294     -0.01792    
C           -73.93963   10.2353     -0.02049    
C           -74.77232   11.51767    -0.02306    
C           -75.60501   12.80004    -0.02562    
C           -76.43769   14.08241    -0.02819    
C           -77.27038   15.36477    -0.03075    
C           -78.10307   16.64714    -0.03332    
C           -70.34971   3.4538      1.36064     
C           -70.92324   3.08413     2.72895     
C           -71.49676   2.71446     4.09725     
C           -72.07028   2.34479     5.46556     
C           -72.6438    1.97512     6.83386     
C           -73.21732   1.60544     8.20217     
C           -73.79084   1.23577     9.57047     
C           -74.36436   0.8661      10.93878    
C           -56.38647   -0.76875    0.00152     
C           -57.53244   0.03017     -7e-05      
N           -56.8226    -2.09427    0.00418     
C           -58.25392   -2.17926    0.00436     
C           -57.96651   1.41133     -0.00283    
O           -57.37096   2.48418     -0.00499    
O           -58.85421   -3.25168    0.0065      
C           -60.19105   2.5411      -0.00509    
C           -56.03658   -3.31511    0.0066      
C           -55.20887   -4.6007     0.00913     
H           -55.62387   -3.05132    -0.96715    
H           -56.4493    -3.57891    0.98034     
H           -60.5999    2.27757     0.97035     
C           -61.02374   3.82347     -0.00766    
H           -59.7822    2.80463     -0.98054    
N           -59.40009   1.323       -0.00266    
C           -58.68344   -0.79904    0.0016      
C           -59.83046   0.0         -0.0        
C           -52.51473   0.0         -0.0        
C           -53.23506   1.19375     -0.00241    
S           -53.6148    -1.36939    0.00276     
H           -55.34366   1.82992     -0.0037     
H           -52.74132   2.16107     -0.00433    
C           -54.62392   1.01742     -0.00206    
C           -55.02276   -0.31931    0.00062     
C           -54.38117   -5.88629    0.01168     
C           -53.55346   -7.17188    0.01421     
C           -52.72576   -8.45747    0.01676     
C           -51.89805   -9.74305    0.0193      
C           -51.07034   -11.02863   0.02183     
C           -50.24263   -12.31422   0.02438     
C           -49.41492   -13.59981   0.02692     
C           -48.58722   -14.8854    0.02946     
C           -47.75951   -16.17099   0.032       
C           -46.9318    -17.45658   0.03454     
C           -54.62994   -4.23065    -1.35678    
C           -54.051     -3.86061    -2.7227     
C           -53.47206   -3.49057    -4.08862    
C           -52.89312   -3.12053    -5.45455    
C           -52.31418   -2.75048    -6.82047    
C           -51.73524   -2.38044    -8.18639    
C           -51.1563    -2.0104     -9.55231    
C           -50.57736   -1.64036    -10.91822   
C           -61.85643   5.10584     -0.01023    
C           -62.68911   6.3882      -0.01279    
C           -63.5218    7.67057     -0.01536    
C           -64.35449   8.95294     -0.01792    
C           -65.18718   10.2353     -0.02049    
C           -66.01986   11.51767    -0.02306    
C           -66.85255   12.80004    -0.02562    
C           -67.68524   14.08241    -0.02819    
C           -68.51793   15.36477    -0.03075    
C           -69.35062   16.64714    -0.03332    
C           -61.59726   3.4538      1.36064     
C           -62.17078   3.08413     2.72895     
C           -62.7443    2.71446     4.09725     
C           -63.31782   2.34479     5.46556     
C           -63.89135   1.97512     6.83386     
C           -64.46487   1.60544     8.20217     
C           -65.03839   1.23577     9.57047     
C           -65.61191   0.8661      10.93878    
C           -47.63401   -0.76875    0.00152     
C           -48.77998   0.03017     -7e-05      
N           -48.07015   -2.09427    0.00418     
C           -49.50146   -2.17926    0.00436     
C           -49.21406   1.41133     -0.00283    
O           -48.6185    2.48418     -0.00499    
O           -50.10176   -3.25168    0.0065      
C           -51.4386    2.5411      -0.00509    
C           -47.28413   -3.31511    0.0066      
C           -46.45642   -4.6007     0.00913     
H           -46.87141   -3.05132    -0.96715    
H           -47.69685   -3.57891    0.98034     
H           -51.84745   2.27757     0.97035     
C           -52.27128   3.82347     -0.00766    
H           -51.02974   2.80463     -0.98054    
N           -50.64763   1.323       -0.00266    
C           -49.93098   -0.79904    0.0016      
C           -51.078     0.0         -0.0        
C           -43.76227   0.0         -0.0        
C           -44.48261   1.19375     -0.00241    
S           -44.86234   -1.36939    0.00276     
H           -46.5912    1.82992     -0.0037     
H           -43.98886   2.16107     -0.00433    
C           -45.87146   1.01742     -0.00206    
C           -46.2703    -0.31931    0.00062     
C           -45.62872   -5.88629    0.01168     
C           -44.80101   -7.17188    0.01421     
C           -43.9733    -8.45747    0.01676     
C           -43.1456    -9.74305    0.0193      
C           -42.31789   -11.02863   0.02183     
C           -41.49018   -12.31422   0.02438     
C           -40.66247   -13.59981   0.02692     
C           -39.83476   -14.8854    0.02946     
C           -39.00705   -16.17099   0.032       
C           -38.17934   -17.45658   0.03454     
C           -45.87749   -4.23065    -1.35678    
C           -45.29855   -3.86061    -2.7227     
C           -44.7196    -3.49057    -4.08862    
C           -44.14066   -3.12053    -5.45455    
C           -43.56172   -2.75048    -6.82047    
C           -42.98279   -2.38044    -8.18639    
C           -42.40384   -2.0104     -9.55231    
C           -41.82491   -1.64036    -10.91822   
C           -53.10397   5.10584     -0.01023    
C           -53.93666   6.3882      -0.01279    
C           -54.76935   7.67057     -0.01536    
C           -55.60203   8.95294     -0.01792    
C           -56.43472   10.2353     -0.02049    
C           -57.26741   11.51767    -0.02306    
C           -58.1001    12.80004    -0.02562    
C           -58.93279   14.08241    -0.02819    
C           -59.76547   15.36477    -0.03075    
C           -60.59816   16.64714    -0.03332    
C           -52.84481   3.4538      1.36064     
C           -53.41833   3.08413     2.72895     
C           -53.99185   2.71446     4.09725     
C           -54.56537   2.34479     5.46556     
C           -55.13889   1.97512     6.83386     
C           -55.71241   1.60544     8.20217     
C           -56.28593   1.23577     9.57047     
C           -56.85946   0.8661      10.93878    
C           -38.88156   -0.76875    0.00152     
C           -40.02753   0.03017     -7e-05      
N           -39.3177    -2.09427    0.00418     
C           -40.74901   -2.17926    0.00436     
C           -40.46161   1.41133     -0.00283    
O           -39.86605   2.48418     -0.00499    
O           -41.3493    -3.25168    0.0065      
C           -42.68614   2.5411      -0.00509    
C           -38.53167   -3.31511    0.0066      
C           -37.70397   -4.6007     0.00913     
H           -38.11896   -3.05132    -0.96715    
H           -38.94439   -3.57891    0.98034     
H           -43.095     2.27757     0.97035     
C           -43.51883   3.82347     -0.00766    
H           -42.27729   2.80463     -0.98054    
N           -41.89518   1.323       -0.00266    
C           -41.17853   -0.79904    0.0016      
C           -42.32555   0.0         -0.0        
C           -35.00982   0.0         -0.0        
C           -35.73016   1.19375     -0.00241    
S           -36.10989   -1.36939    0.00276     
H           -37.83875   1.82992     -0.0037     
H           -35.23641   2.16107     -0.00433    
C           -37.11901   1.01742     -0.00206    
C           -37.51785   -0.31931    0.00062     
C           -36.87626   -5.88629    0.01168     
C           -36.04855   -7.17188    0.01421     
C           -35.22085   -8.45747    0.01676     
C           -34.39314   -9.74305    0.0193      
C           -33.56543   -11.02863   0.02183     
C           -32.73772   -12.31422   0.02438     
C           -31.91001   -13.59981   0.02692     
C           -31.08231   -14.8854    0.02946     
C           -30.2546    -16.17099   0.032       
C           -29.42689   -17.45658   0.03454     
C           -37.12503   -4.23065    -1.35678    
C           -36.54609   -3.86061    -2.7227     
C           -35.96715   -3.49057    -4.08862    
C           -35.38821   -3.12053    -5.45455    
C           -34.80927   -2.75048    -6.82047    
C           -34.23033   -2.38044    -8.18639    
C           -33.65139   -2.0104     -9.55231    
C           -33.07245   -1.64036    -10.91822   
C           -44.35152   5.10584     -0.01023    
C           -45.18421   6.3882      -0.01279    
C           -46.01689   7.67057     -0.01536    
C           -46.84958   8.95294     -0.01792    
C           -47.68227   10.2353     -0.02049    
C           -48.51496   11.51767    -0.02306    
C           -49.34764   12.80004    -0.02562    
C           -50.18033   14.08241    -0.02819    
C           -51.01302   15.36477    -0.03075    
C           -51.84571   16.64714    -0.03332    
C           -44.09235   3.4538      1.36064     
C           -44.66587   3.08413     2.72895     
C           -45.23939   2.71446     4.09725     
C           -45.81292   2.34479     5.46556     
C           -46.38644   1.97512     6.83386     
C           -46.95996   1.60544     8.20217     
C           -47.53348   1.23577     9.57047     
C           -48.107     0.8661      10.93878    
C           -30.12911   -0.76875    0.00152     
C           -31.27507   0.03017     -7e-05      
N           -30.56524   -2.09427    0.00418     
C           -31.99656   -2.17926    0.00436     
C           -31.70915   1.41133     -0.00283    
O           -31.11359   2.48418     -0.00499    
O           -32.59685   -3.25168    0.0065      
C           -33.93369   2.5411      -0.00509    
C           -29.77922   -3.31511    0.0066      
C           -28.95151   -4.6007     0.00913     
H           -29.36651   -3.05132    -0.96715    
H           -30.19194   -3.57891    0.98034     
H           -34.34254   2.27757     0.97035     
C           -34.76638   3.82347     -0.00766    
H           -33.52483   2.80463     -0.98054    
N           -33.14273   1.323       -0.00266    
C           -32.42607   -0.79904    0.0016      
C           -33.57309   0.0         -0.0        
C           -26.25736   0.0         -0.0        
C           -26.9777    1.19375     -0.00241    
S           -27.35743   -1.36939    0.00276     
H           -29.08629   1.82992     -0.0037     
H           -26.48395   2.16107     -0.00433    
C           -28.36656   1.01742     -0.00206    
C           -28.76539   -0.31931    0.00062     
C           -28.12381   -5.88629    0.01168     
C           -27.2961    -7.17188    0.01421     
C           -26.46839   -8.45747    0.01676     
C           -25.64069   -9.74305    0.0193      
C           -24.81298   -11.02863   0.02183     
C           -23.98527   -12.31422   0.02438     
C           -23.15756   -13.59981   0.02692     
C           -22.32985   -14.8854    0.02946     
C           -21.50214   -16.17099   0.032       
C           -20.67444   -17.45658   0.03454     
C           -28.37258   -4.23065    -1.35678    
C           -27.79364   -3.86061    -2.7227     
C           -27.21469   -3.49057    -4.08862    
C           -26.63575   -3.12053    -5.45455    
C           -26.05682   -2.75048    -6.82047    
C           -25.47788   -2.38044    -8.18639    
C           -24.89893   -2.0104     -9.55231    
C           -24.32      -1.64036    -10.91822   
C           -35.59906   5.10584     -0.01023    
C           -36.43175   6.3882      -0.01279    
C           -37.26444   7.67057     -0.01536    
C           -38.09713   8.95294     -0.01792    
C           -38.92981   10.2353     -0.02049    
C           -39.7625    11.51767    -0.02306    
C           -40.59519   12.80004    -0.02562    
C           -41.42788   14.08241    -0.02819    
C           -42.26057   15.36477    -0.03075    
C           -43.09325   16.64714    -0.03332    
C           -35.3399    3.4538      1.36064     
C           -35.91342   3.08413     2.72895     
C           -36.48694   2.71446     4.09725     
C           -37.06046   2.34479     5.46556     
C           -37.63398   1.97512     6.83386     
C           -38.2075    1.60544     8.20217     
C           -38.78103   1.23577     9.57047     
C           -39.35455   0.8661      10.93878    
C           -21.37665   -0.76875    0.00152     
C           -22.52262   0.03017     -7e-05      
N           -21.81279   -2.09427    0.00418     
C           -23.2441    -2.17926    0.00436     
C           -22.9567    1.41133     -0.00283    
O           -22.36114   2.48418     -0.00499    
O           -23.8444    -3.25168    0.0065      
C           -25.18123   2.5411      -0.00509    
C           -21.02677   -3.31511    0.0066      
C           -20.19906   -4.6007     0.00913     
H           -20.61405   -3.05132    -0.96715    
H           -21.43948   -3.57891    0.98034     
H           -25.59009   2.27757     0.97035     
C           -26.01392   3.82347     -0.00766    
H           -24.77238   2.80463     -0.98054    
N           -24.39027   1.323       -0.00266    
C           -23.67362   -0.79904    0.0016      
C           -24.82064   0.0         -0.0        
C           -17.50491   0.0         -0.0        
C           -18.22525   1.19375     -0.00241    
S           -18.60498   -1.36939    0.00276     
H           -20.33384   1.82992     -0.0037     
H           -17.7315    2.16107     -0.00433    
C           -19.6141    1.01742     -0.00206    
C           -20.01294   -0.31931    0.00062     
C           -19.37135   -5.88629    0.01168     
C           -18.54364   -7.17188    0.01421     
C           -17.71594   -8.45747    0.01676     
C           -16.88823   -9.74305    0.0193      
C           -16.06053   -11.02863   0.02183     
C           -15.23281   -12.31422   0.02438     
C           -14.4051    -13.59981   0.02692     
C           -13.5774    -14.8854    0.02946     
C           -12.74969   -16.17099   0.032       
C           -11.92198   -17.45658   0.03454     
C           -19.62012   -4.23065    -1.35678    
C           -19.04118   -3.86061    -2.7227     
C           -18.46224   -3.49057    -4.08862    
C           -17.8833    -3.12053    -5.45455    
C           -17.30436   -2.75048    -6.82047    
C           -16.72542   -2.38044    -8.18639    
C           -16.14648   -2.0104     -9.55231    
C           -15.56754   -1.64036    -10.91822   
C           -26.84661   5.10584     -0.01023    
C           -27.6793    6.3882      -0.01279    
C           -28.51198   7.67057     -0.01536    
C           -29.34467   8.95294     -0.01792    
C           -30.17736   10.2353     -0.02049    
C           -31.01005   11.51767    -0.02306    
C           -31.84274   12.80004    -0.02562    
C           -32.67542   14.08241    -0.02819    
C           -33.50811   15.36477    -0.03075    
C           -34.3408    16.64714    -0.03332    
C           -26.58744   3.4538      1.36064     
C           -27.16096   3.08413     2.72895     
C           -27.73449   2.71446     4.09725     
C           -28.30801   2.34479     5.46556     
C           -28.88153   1.97512     6.83386     
C           -29.45505   1.60544     8.20217     
C           -30.02857   1.23577     9.57047     
C           -30.60209   0.8661      10.93878    
C           -12.6242    -0.76875    0.00152     
C           -13.77017   0.03017     -7e-05      
N           -13.06033   -2.09427    0.00418     
C           -14.49165   -2.17926    0.00436     
C           -14.20424   1.41133     -0.00283    
O           -13.60869   2.48418     -0.00499    
O           -15.09194   -3.25168    0.0065      
C           -16.42878   2.5411      -0.00509    
C           -12.27431   -3.31511    0.0066      
C           -11.4466    -4.6007     0.00913     
H           -11.8616    -3.05132    -0.96715    
H           -12.68703   -3.57891    0.98034     
H           -16.83763   2.27757     0.97035     
C           -17.26147   3.82347     -0.00766    
H           -16.01992   2.80463     -0.98054    
N           -15.63782   1.323       -0.00266    
C           -14.92117   -0.79904    0.0016      
C           -16.06818   0.0         -0.0        
C           -8.75245    0.0         -0.0        
C           -9.47279    1.19375     -0.00241    
S           -9.85253    -1.36939    0.00276     
H           -11.58139   1.82992     -0.0037     
H           -8.97905    2.16107     -0.00433    
C           -10.86165   1.01742     -0.00206    
C           -11.26049   -0.31931    0.00062     
C           -10.6189    -5.88629    0.01168     
C           -9.79119    -7.17188    0.01421     
C           -8.96348    -8.45747    0.01676     
C           -8.13578    -9.74305    0.0193      
C           -7.30807    -11.02863   0.02183     
C           -6.48036    -12.31422   0.02438     
C           -5.65265    -13.59981   0.02692     
C           -4.82495    -14.8854    0.02946     
C           -3.99724    -16.17099   0.032       
C           -3.16953    -17.45658   0.03454     
C           -10.86767   -4.23065    -1.35678    
C           -10.28873   -3.86061    -2.7227     
C           -9.70979    -3.49057    -4.08862    
C           -9.13085    -3.12053    -5.45455    
C           -8.55191    -2.75048    -6.82047    
C           -7.97297    -2.38044    -8.18639    
C           -7.39402    -2.0104     -9.55231    
C           -6.81509    -1.64036    -10.91822   
C           -18.09415   5.10584     -0.01023    
C           -18.92684   6.3882      -0.01279    
C           -19.75953   7.67057     -0.01536    
C           -20.59222   8.95294     -0.01792    
C           -21.42491   10.2353     -0.02049    
C           -22.25759   11.51767    -0.02306    
C           -23.09028   12.80004    -0.02562    
C           -23.92297   14.08241    -0.02819    
C           -24.75566   15.36477    -0.03075    
C           -25.58835   16.64714    -0.03332    
C           -17.83499   3.4538      1.36064     
C           -18.40851   3.08413     2.72895     
C           -18.98203   2.71446     4.09725     
C           -19.55555   2.34479     5.46556     
C           -20.12907   1.97512     6.83386     
C           -20.7026    1.60544     8.20217     
C           -21.27612   1.23577     9.57047     
C           -21.84964   0.8661      10.93878    
C           -3.87174    -0.76875    0.00152     
C           -5.01771    0.03017     -7e-05      
N           -4.30788    -2.09427    0.00418     
C           -5.73919    -2.17926    0.00436     
C           -5.45179    1.41133     -0.00283    
O           -4.85623    2.48418     -0.00499    
O           -6.33949    -3.25168    0.0065      
C           -7.67632    2.5411      -0.00509    
C           -3.52186    -3.31511    0.0066      
C           -2.69415    -4.6007     0.00913     
H           -3.10914    -3.05132    -0.96715    
H           -3.93458    -3.57891    0.98034     
H           -8.08518    2.27757     0.97035     
C           -8.50901    3.82347     -0.00766    
H           -7.26747    2.80463     -0.98054    
N           -6.88536    1.323       -0.00266    
C           -6.16871    -0.79904    0.0016      
C           -7.31573    0.0         -0.0        
C           0.0         0.0         0.0         
C           -0.72034    1.19375     -0.00241    
S           -1.10007    -1.36939    0.00276     
H           -2.82893    1.82992     -0.0037     
H           -0.22659    2.16107     -0.00433    
C           -2.10919    1.01742     -0.00206    
C           -2.50803    -0.31931    0.00062     
C           -1.86644    -5.88629    0.01168     
C           -1.03873    -7.17188    0.01421     
C           -0.21103    -8.45747    0.01676     
C           0.61667     -9.74305    0.0193      
C           1.44438     -11.02863   0.02183     
C           2.2721      -12.31422   0.02438     
C           3.0998      -13.59981   0.02692     
C           3.92751     -14.8854    0.02946     
C           4.75522     -16.17099   0.032       
C           5.58293     -17.45658   0.03454     
C           -2.11521    -4.23065    -1.35678    
C           -1.53628    -3.86061    -2.7227     
C           -0.95733    -3.49057    -4.08862    
C           -0.37839    -3.12053    -5.45455    
C           0.20055     -2.75048    -6.82047    
C           0.77949     -2.38044    -8.18639    
C           1.35843     -2.0104     -9.55231    
C           1.93737     -1.64036    -10.91822   
C           -9.3417     5.10584     -0.01023    
C           -10.17439   6.3882      -0.01279    
C           -11.00708   7.67057     -0.01536    
C           -11.83976   8.95294     -0.01792    
C           -12.67245   10.2353     -0.02049    
C           -13.50514   11.51767    -0.02306    
C           -14.33783   12.80004    -0.02562    
C           -15.17052   14.08241    -0.02819    
C           -16.0032    15.36477    -0.03075    
C           -16.83589   16.64714    -0.03332    
C           -9.08253    3.4538      1.36064     
C           -9.65606    3.08413     2.72895     
C           -10.22958   2.71446     4.09725     
C           -10.8031    2.34479     5.46556     
C           -11.37662   1.97512     6.83386     
C           -11.95014   1.60544     8.20217     
C           -12.52366   1.23577     9.57047     
C           -13.09718   0.8661      10.93878    
H           -87.17782   0.0         -0.0        
H           1.09        0.0         0.0         
