752

C           -148.84291  0.5096      0.00345     
C           -150.03795  -0.20366    -0.00112    
N           -149.16462  1.86384     0.01213     
C           -150.58883  2.05934     0.01348     
C           -150.56858  -1.54896    -0.0098     
O           -150.04283  -2.6587     -0.01696    
O           -151.11432  3.16897     0.02048     
C           -152.89585  -2.4925     -0.0161     
C           -148.26373  3.00392     0.01939     
C           -147.31578  4.20357     0.02703     
H           -148.78427  3.42074     -0.84282    
H           -147.74318  2.5871      0.88159     
H           -152.37527  -2.91044    0.84554     
C           -153.84518  -3.69106    -0.0239     
H           -153.41644  -2.07456    -0.87773    
N           -151.99302  -1.35264    -0.00868    
C           -151.11828  0.71352     0.00474     
C           -152.31253  -0.0        0.0         
C           -145.32352  -0.0203     -1e-05      
C           -145.70443  -1.34736    -0.00852    
O           -146.42784  0.78363     0.00517     
H           -145.03577  -2.19571    -0.01397    
H           -147.78391  -2.21573    -0.01405    
C           -147.11574  -1.36403    -0.0086     
C           -147.5288   -0.04282    -0.00011    
C           -141.84773  0.63971     0.00417     
C           -142.248    1.95794     0.01262     
O           -142.9457   -0.1798     -0.00107    
H           -141.5947   2.81817     0.01813     
H           -144.32706  2.80416     0.01808     
C           -143.66494  1.95081     0.0126      
C           -144.0516   0.62803     0.00413     
C           -138.36504  -0.0        0.0         
C           -138.76597  -1.32429    -0.00848    
O           -139.47374  0.81702     0.00525     
H           -138.08938  -2.16977    -0.01391    
H           -140.83868  -2.1746     -0.01389    
C           -140.17732  -1.32066    -0.00844    
C           -140.56933  0.00369     6e-05       
C           -146.36783  5.40322     0.03467     
C           -145.41987  6.60288     0.04231     
C           -144.47192  7.80253     0.04995     
C           -143.52397  9.00219     0.05759     
C           -142.57601  10.20184    0.06523     
C           -141.62806  11.40149    0.07287     
C           -140.6801   12.60115    0.08052     
C           -139.73215  13.8008     0.08814     
C           -138.7842   15.00044    0.09579     
C           -137.83624  16.2001     0.10343     
C           -148.04597  4.78827     -1.18243    
C           -148.77617  5.37297     -2.39188    
C           -149.50637  5.95766     -3.60134    
C           -150.23656  6.54236     -4.81079    
C           -150.96676  7.12706     -6.02025    
C           -151.69696  7.71175     -7.22971    
C           -152.42716  8.29645     -8.43916    
C           -153.15736  8.88115     -9.64862    
C           -154.79451  -4.88962    -0.0317     
C           -155.74384  -6.08819    -0.0395     
C           -156.69317  -7.28675    -0.0473     
C           -157.6425   -8.48531    -0.0551     
C           -158.59183  -9.68387    -0.0629     
C           -159.54116  -10.88244   -0.07071    
C           -160.49049  -12.081     -0.07851    
C           -161.43982  -13.27956   -0.08631    
C           -162.38915  -14.47813   -0.09411    
C           -163.33848  -15.67669   -0.10191    
C           -153.11493  -4.27733    1.18476     
C           -152.38468  -4.8636     2.39342     
C           -151.65442  -5.44987    3.60208     
C           -150.92417  -6.03614    4.81074     
C           -150.19391  -6.62241    6.0194      
C           -149.46366  -7.20868    7.22806     
C           -148.73341  -7.79495    8.43672     
C           -148.00315  -8.38122    9.64538     
C           -133.46902  -0.5096     0.00422     
C           -134.66405  0.20366     -0.00194    
N           -133.79072  -1.86381    0.01594     
C           -135.21493  -2.05931    0.01753     
C           -135.19469  1.54893     -0.01353    
O           -134.66894  2.65866     -0.02308    
O           -135.74042  -3.16892    0.02725     
C           -137.52196  2.49246     -0.02144    
C           -132.88984  -3.00387    0.02585     
C           -131.94188  -4.2035     0.03627     
H           -133.41038  -3.40766    0.89423     
H           -132.36929  -2.60008    -0.84253    
H           -137.00137  2.89738     -0.88927    
C           -138.47129  3.691       -0.03169    
H           -138.04254  2.08754     0.84639     
N           -136.61913  1.35262     -0.01169    
C           -135.74439  -0.71351    0.006       
C           -136.93864  -0.0        0.0         
C           -129.94963  0.02029     -0.00029    
C           -130.33054  1.34733     -0.01177    
O           -131.05395  -0.78362    0.00663     
H           -129.66188  2.19567     -0.0191     
H           -132.41002  2.21569     -0.01932    
C           -131.74184  1.36401     -0.01194    
C           -132.15491  0.04282     -0.00053    
C           -126.47383  -0.6397     0.00547     
C           -126.8741   -1.95791    0.01686     
O           -127.57181  0.17979     -0.00164    
H           -126.2208   -2.81812    0.02431     
H           -128.95317  -2.80412    0.02415     
C           -128.29105  -1.95078    0.01678     
C           -128.67771  -0.62803    0.00533     
C           -122.99115  -0.0        0.0         
C           -123.39207  1.32426     -0.01146    
O           -124.09985  -0.81701    0.00705     
H           -122.71549  2.16973     -0.01877    
H           -125.46479  2.17456     -0.01886    
C           -124.80342  1.32064     -0.01145    
C           -125.19544  -0.00369    -0.0        
C           -130.99393  -5.40313    0.04671     
C           -130.04598  -6.60277    0.05713     
C           -129.09802  -7.8024     0.06755     
C           -128.15007  -9.00203    0.07798     
C           -127.20212  -10.20167   0.08841     
C           -126.25416  -11.4013    0.09883     
C           -125.30621  -12.60093   0.10925     
C           -124.35825  -13.80056   0.11969     
C           -123.4103   -15.00018   0.13011     
C           -122.46235  -16.19982   0.14054     
C           -132.67208  -4.76992    1.2544      
C           -133.40228  -5.33634    2.47252     
C           -134.13247  -5.90276    3.69065     
C           -134.86267  -6.46918    4.90877     
C           -135.59287  -7.0356     6.12689     
C           -136.32307  -7.60201    7.34502     
C           -137.05327  -8.16843    8.56314     
C           -137.78346  -8.73485    9.78127     
C           -139.42062  4.88955     -0.04194    
C           -140.36995  6.08809     -0.05219    
C           -141.31928  7.28663     -0.06243    
C           -142.26861  8.48518     -0.07268    
C           -143.21794  9.68372     -0.08293    
C           -144.16727  10.88227    -0.09318    
C           -145.1166   12.08081    -0.10343    
C           -146.06593  13.27936    -0.11368    
C           -147.01526  14.4779     -0.12393    
C           -147.96459  15.67645    -0.13417    
C           -137.74104  4.259       -1.24904    
C           -137.01078  4.82701     -2.46639    
C           -136.28053  5.39501     -3.68374    
C           -135.55027  5.96301     -4.9011     
C           -134.82002  6.53101     -6.11845    
C           -134.08977  7.09901     -7.3358     
C           -133.35951  7.66702     -8.55315    
C           -132.62926  8.23502     -9.7705     
C           -118.09512  0.5096      -0.00422    
C           -119.29016  -0.20366    0.00194     
N           -118.41683  1.86381     -0.01594    
C           -119.84104  2.05931     -0.01753    
C           -119.8208   -1.54893    0.01353     
O           -119.29505  -2.65866    0.02308     
O           -120.36653  3.16892     -0.02725    
C           -122.14806  -2.49246    0.02144     
C           -117.51595  3.00387     -0.02585    
C           -116.56799  4.2035      -0.03627    
H           -118.03649  3.40766     -0.89423    
H           -116.9954   2.60008     0.84253     
H           -121.62748  -2.89738    0.88927     
C           -123.09739  -3.691      0.03169     
H           -122.66865  -2.08754    -0.84639    
N           -121.24523  -1.35262    0.01169     
C           -120.3705   0.71351     -0.006      
C           -121.56475  -0.0        0.0         
C           -114.57573  -0.02029    0.00029     
C           -114.95665  -1.34733    0.01177     
O           -115.68005  0.78362     -0.00663    
H           -114.28799  -2.19567    0.0191      
H           -117.03613  -2.21569    0.01932     
C           -116.36795  -1.36401    0.01194     
C           -116.78102  -0.04282    0.00053     
C           -111.09994  0.6397      -0.00547    
C           -111.50021  1.95791     -0.01686    
O           -112.19792  -0.17979    0.00164     
H           -110.84691  2.81812     -0.02431    
H           -113.57928  2.80412     -0.02415    
C           -112.91715  1.95078     -0.01678    
C           -113.30382  0.62803     -0.00533    
C           -107.61726  -0.0        0.0         
C           -108.01818  -1.32426    0.01146     
O           -108.72595  0.81701     -0.00705    
H           -107.3416   -2.16973    0.01877     
H           -110.0909   -2.17456    0.01886     
C           -109.42953  -1.32064    0.01145     
C           -109.82154  0.00369     0.0         
C           -115.62004  5.40313     -0.04671    
C           -114.67209  6.60277     -0.05713    
C           -113.72413  7.8024      -0.06755    
C           -112.77618  9.00203     -0.07798    
C           -111.82823  10.20167    -0.08841    
C           -110.88027  11.4013     -0.09883    
C           -109.93232  12.60093    -0.10925    
C           -108.98436  13.80056    -0.11969    
C           -108.03641  15.00018    -0.13011    
C           -107.08845  16.19982    -0.14054    
C           -117.29819  4.76992     -1.2544     
C           -118.02838  5.33634     -2.47252    
C           -118.75858  5.90276     -3.69065    
C           -119.48878  6.46918     -4.90877    
C           -120.21897  7.0356      -6.12689    
C           -120.94918  7.60201     -7.34502    
C           -121.67937  8.16843     -8.56314    
C           -122.40957  8.73485     -9.78127    
C           -124.04672  -4.88955    0.04194     
C           -124.99605  -6.08809    0.05219     
C           -125.94539  -7.28663    0.06243     
C           -126.89472  -8.48518    0.07268     
C           -127.84405  -9.68372    0.08293     
C           -128.79338  -10.88227   0.09318     
C           -129.74271  -12.08081   0.10343     
C           -130.69204  -13.27936   0.11368     
C           -131.64137  -14.4779    0.12393     
C           -132.5907   -15.67645   0.13417     
C           -122.36714  -4.259      1.24904     
C           -121.63689  -4.82701    2.46639     
C           -120.90663  -5.39501    3.68374     
C           -120.17638  -5.96301    4.9011      
C           -119.44613  -6.53101    6.11845     
C           -118.71587  -7.09901    7.3358      
C           -117.98562  -7.66702    8.55315     
C           -117.25537  -8.23502    9.7705      
C           -102.72123  -0.5096     0.00422     
C           -103.91627  0.20366     -0.00194    
N           -103.04294  -1.86381    0.01594     
C           -104.46715  -2.05931    0.01753     
C           -104.4469   1.54893     -0.01353    
O           -103.92115  2.65866     -0.02308    
O           -104.99264  -3.16892    0.02725     
C           -106.77417  2.49246     -0.02144    
C           -102.14205  -3.00387    0.02585     
C           -101.1941   -4.2035     0.03627     
H           -102.66259  -3.40766    0.89423     
H           -101.6215   -2.60008    -0.84253    
H           -106.25359  2.89738     -0.88927    
C           -107.7235   3.691       -0.03169    
H           -107.29476  2.08754     0.84639     
N           -105.87134  1.35262     -0.01169    
C           -104.9966   -0.71351    0.006       
C           -106.19085  -0.0        0.0         
C           -99.20184   0.02029     -0.00029    
C           -99.58275   1.34733     -0.01177    
O           -100.30616  -0.78362    0.00663     
H           -98.91409   2.19567     -0.0191     
H           -101.66223  2.21569     -0.01932    
C           -100.99406  1.36401     -0.01194    
C           -101.40712  0.04282     -0.00053    
C           -95.72605   -0.6397     0.00547     
C           -96.12632   -1.95791    0.01686     
O           -96.82402   0.17979     -0.00164    
H           -95.47302   -2.81812    0.02431     
H           -98.20538   -2.80412    0.02415     
C           -97.54326   -1.95078    0.01678     
C           -97.92992   -0.62803    0.00533     
C           -92.24336   -0.0        0.0         
C           -92.64429   1.32426     -0.01146    
O           -93.35206   -0.81701    0.00705     
H           -91.9677    2.16973     -0.01877    
H           -94.717     2.17456     -0.01886    
C           -94.05564   1.32064     -0.01145    
C           -94.44765   -0.00369    -0.0        
C           -100.24615  -5.40313    0.04671     
C           -99.29819   -6.60277    0.05713     
C           -98.35024   -7.8024     0.06755     
C           -97.40229   -9.00203    0.07798     
C           -96.45433   -10.20167   0.08841     
C           -95.50638   -11.4013    0.09883     
C           -94.55842   -12.60093   0.10925     
C           -93.61046   -13.80056   0.11969     
C           -92.66252   -15.00018   0.13011     
C           -91.71456   -16.19982   0.14054     
C           -101.92429  -4.76992    1.2544      
C           -102.65449  -5.33634    2.47252     
C           -103.38469  -5.90276    3.69065     
C           -104.11488  -6.46918    4.90877     
C           -104.84508  -7.0356     6.12689     
C           -105.57528  -7.60201    7.34502     
C           -106.30548  -8.16843    8.56314     
C           -107.03568  -8.73485    9.78127     
C           -108.67283  4.88955     -0.04194    
C           -109.62216  6.08809     -0.05219    
C           -110.57149  7.28663     -0.06243    
C           -111.52082  8.48518     -0.07268    
C           -112.47015  9.68372     -0.08293    
C           -113.41948  10.88227    -0.09318    
C           -114.36881  12.08081    -0.10343    
C           -115.31814  13.27936    -0.11368    
C           -116.26747  14.4779     -0.12393    
C           -117.2168   15.67645    -0.13417    
C           -106.99325  4.259       -1.24904    
C           -106.26299  4.82701     -2.46639    
C           -105.53274  5.39501     -3.68374    
C           -104.80249  5.96301     -4.9011     
C           -104.07223  6.53101     -6.11845    
C           -103.34198  7.09901     -7.3358     
C           -102.61173  7.66702     -8.55315    
C           -101.88147  8.23502     -9.7705     
C           -87.34734   0.5096      -0.00422    
C           -88.54237   -0.20366    0.00194     
N           -87.66904   1.86381     -0.01594    
C           -89.09325   2.05931     -0.01753    
C           -89.07301   -1.54893    0.01353     
O           -88.54726   -2.65866    0.02308     
O           -89.61874   3.16892     -0.02725    
C           -91.40028   -2.49246    0.02144     
C           -86.76816   3.00387     -0.02585    
C           -85.8202    4.2035      -0.03627    
H           -87.2887    3.40766     -0.89423    
H           -86.24761   2.60008     0.84253     
H           -90.87969   -2.89738    0.88927     
C           -92.34961   -3.691      0.03169     
H           -91.92086   -2.08754    -0.84639    
N           -90.49745   -1.35262    0.01169     
C           -89.62271   0.71351     -0.006      
C           -90.81696   -0.0        0.0         
C           -83.82795   -0.02029    0.00029     
C           -84.20886   -1.34733    0.01177     
O           -84.93226   0.78362     -0.00663    
H           -83.5402    -2.19567    0.0191      
H           -86.28834   -2.21569    0.01932     
C           -85.62016   -1.36401    0.01194     
C           -86.03323   -0.04282    0.00053     
C           -80.35215   0.6397      -0.00547    
C           -80.75242   1.95791     -0.01686    
O           -81.45013   -0.17979    0.00164     
H           -80.09912   2.81812     -0.02431    
H           -82.83149   2.80412     -0.02415    
C           -82.16937   1.95078     -0.01678    
C           -82.55603   0.62803     -0.00533    
C           -76.86947   -0.0        0.0         
C           -77.27039   -1.32426    0.01146     
O           -77.97816   0.81701     -0.00705    
H           -76.59381   -2.16973    0.01877     
H           -79.34311   -2.17456    0.01886     
C           -78.68174   -1.32064    0.01145     
C           -79.07376   0.00369     0.0         
C           -84.87225   5.40313     -0.04671    
C           -83.9243    6.60277     -0.05713    
C           -82.97634   7.8024      -0.06755    
C           -82.02839   9.00203     -0.07798    
C           -81.08044   10.20167    -0.08841    
C           -80.13248   11.4013     -0.09883    
C           -79.18453   12.60093    -0.10925    
C           -78.23657   13.80056    -0.11969    
C           -77.28862   15.00018    -0.13011    
C           -76.34067   16.19982    -0.14054    
C           -86.5504    4.76992     -1.2544     
C           -87.2806    5.33634     -2.47252    
C           -88.01079   5.90276     -3.69065    
C           -88.74099   6.46918     -4.90877    
C           -89.47119   7.0356      -6.12689    
C           -90.20139   7.60201     -7.34502    
C           -90.93159   8.16843     -8.56314    
C           -91.66178   8.73485     -9.78127    
C           -93.29894   -4.88955    0.04194     
C           -94.24827   -6.08809    0.05219     
C           -95.1976    -7.28663    0.06243     
C           -96.14693   -8.48518    0.07268     
C           -97.09626   -9.68372    0.08293     
C           -98.04559   -10.88227   0.09318     
C           -98.99492   -12.08081   0.10343     
C           -99.94425   -13.27936   0.11368     
C           -100.89358  -14.4779    0.12393     
C           -101.84291  -15.67645   0.13417     
C           -91.61935   -4.259      1.24904     
C           -90.8891    -4.82701    2.46639     
C           -90.15885   -5.39501    3.68374     
C           -89.42859   -5.96301    4.9011      
C           -88.69834   -6.53101    6.11845     
C           -87.96809   -7.09901    7.3358      
C           -87.23783   -7.66702    8.55315     
C           -86.50758   -8.23502    9.7705      
C           -71.97344   -0.5096     0.00422     
C           -73.16848   0.20366     -0.00194    
N           -72.29515   -1.86381    0.01594     
C           -73.71936   -2.05931    0.01753     
C           -73.69912   1.54893     -0.01353    
O           -73.17337   2.65866     -0.02308    
O           -74.24485   -3.16892    0.02725     
C           -76.02638   2.49246     -0.02144    
C           -71.39426   -3.00387    0.02585     
C           -70.44631   -4.2035     0.03627     
H           -71.91481   -3.40766    0.89423     
H           -70.87372   -2.60008    -0.84253    
H           -75.5058    2.89738     -0.88927    
C           -76.97571   3.691       -0.03169    
H           -76.54697   2.08754     0.84639     
N           -75.12355   1.35262     -0.01169    
C           -74.24881   -0.71351    0.006       
C           -75.44307   -0.0        0.0         
C           -68.45405   0.02029     -0.00029    
C           -68.83496   1.34733     -0.01177    
O           -69.55837   -0.78362    0.00663     
H           -68.16631   2.19567     -0.0191     
H           -70.91445   2.21569     -0.01932    
C           -70.24627   1.36401     -0.01194    
C           -70.65934   0.04282     -0.00053    
C           -64.97826   -0.6397     0.00547     
C           -65.37853   -1.95791    0.01686     
O           -66.07624   0.17979     -0.00164    
H           -64.72523   -2.81812    0.02431     
H           -67.4576    -2.80412    0.02415     
C           -66.79547   -1.95078    0.01678     
C           -67.18214   -0.62803    0.00533     
C           -61.49557   -0.0        0.0         
C           -61.8965    1.32426     -0.01146    
O           -62.60427   -0.81701    0.00705     
H           -61.21992   2.16973     -0.01877    
H           -63.96921   2.17456     -0.01886    
C           -63.30785   1.32064     -0.01145    
C           -63.69986   -0.00369    -0.0        
C           -69.49836   -5.40313    0.04671     
C           -68.5504    -6.60277    0.05713     
C           -67.60245   -7.8024     0.06755     
C           -66.6545    -9.00203    0.07798     
C           -65.70654   -10.20167   0.08841     
C           -64.75859   -11.4013    0.09883     
C           -63.81063   -12.60093   0.10925     
C           -62.86268   -13.80056   0.11969     
C           -61.91473   -15.00018   0.13011     
C           -60.96677   -16.19982   0.14054     
C           -71.17651   -4.76992    1.2544      
C           -71.9067    -5.33634    2.47252     
C           -72.6369    -5.90276    3.69065     
C           -73.3671    -6.46918    4.90877     
C           -74.09729   -7.0356     6.12689     
C           -74.8275    -7.60201    7.34502     
C           -75.55769   -8.16843    8.56314     
C           -76.28789   -8.73485    9.78127     
C           -77.92504   4.88955     -0.04194    
C           -78.87437   6.08809     -0.05219    
C           -79.8237    7.28663     -0.06243    
C           -80.77303   8.48518     -0.07268    
C           -81.72236   9.68372     -0.08293    
C           -82.67169   10.88227    -0.09318    
C           -83.62102   12.08081    -0.10343    
C           -84.57035   13.27936    -0.11368    
C           -85.51968   14.4779     -0.12393    
C           -86.46901   15.67645    -0.13417    
C           -76.24546   4.259       -1.24904    
C           -75.51521   4.82701     -2.46639    
C           -74.78495   5.39501     -3.68374    
C           -74.0547    5.96301     -4.9011     
C           -73.32445   6.53101     -6.11845    
C           -72.59419   7.09901     -7.3358     
C           -71.86394   7.66702     -8.55315    
C           -71.13369   8.23502     -9.7705     
C           -56.59955   0.5096      -0.00422    
C           -57.79458   -0.20366    0.00194     
N           -56.92125   1.86381     -0.01594    
C           -58.34547   2.05931     -0.01753    
C           -58.32522   -1.54893    0.01353     
O           -57.79947   -2.65866    0.02308     
O           -58.87096   3.16892     -0.02725    
C           -60.65249   -2.49246    0.02144     
C           -56.02037   3.00387     -0.02585    
C           -55.07242   4.2035      -0.03627    
H           -56.54091   3.40766     -0.89423    
H           -55.49982   2.60008     0.84253     
H           -60.1319    -2.89738    0.88927     
C           -61.60182   -3.691      0.03169     
H           -61.17308   -2.08754    -0.84639    
N           -59.74966   -1.35262    0.01169     
C           -58.87492   0.71351     -0.006      
C           -60.06917   -0.0        0.0         
C           -53.08016   -0.02029    0.00029     
C           -53.46107   -1.34733    0.01177     
O           -54.18448   0.78362     -0.00663    
H           -52.79241   -2.19567    0.0191      
H           -55.54055   -2.21569    0.01932     
C           -54.87238   -1.36401    0.01194     
C           -55.28544   -0.04282    0.00053     
C           -49.60437   0.6397      -0.00547    
C           -50.00463   1.95791     -0.01686    
O           -50.70234   -0.17979    0.00164     
H           -49.35134   2.81812     -0.02431    
H           -52.0837    2.80412     -0.02415    
C           -51.42158   1.95078     -0.01678    
C           -51.80824   0.62803     -0.00533    
C           -46.12168   -0.0        0.0         
C           -46.5226    -1.32426    0.01146     
O           -47.23038   0.81701     -0.00705    
H           -45.84602   -2.16973    0.01877     
H           -48.59532   -2.17456    0.01886     
C           -47.93396   -1.32064    0.01145     
C           -48.32597   0.00369     0.0         
C           -54.12447   5.40313     -0.04671    
C           -53.17651   6.60277     -0.05713    
C           -52.22856   7.8024      -0.06755    
C           -51.28061   9.00203     -0.07798    
C           -50.33265   10.20167    -0.08841    
C           -49.3847    11.4013     -0.09883    
C           -48.43674   12.60093    -0.10925    
C           -47.48878   13.80056    -0.11969    
C           -46.54084   15.00018    -0.13011    
C           -45.59288   16.19982    -0.14054    
C           -55.80261   4.76992     -1.2544     
C           -56.53281   5.33634     -2.47252    
C           -57.26301   5.90276     -3.69065    
C           -57.9932    6.46918     -4.90877    
C           -58.7234    7.0356      -6.12689    
C           -59.4536    7.60201     -7.34502    
C           -60.1838    8.16843     -8.56314    
C           -60.914     8.73485     -9.78127    
C           -62.55115   -4.88955    0.04194     
C           -63.50048   -6.08809    0.05219     
C           -64.44981   -7.28663    0.06243     
C           -65.39914   -8.48518    0.07268     
C           -66.34847   -9.68372    0.08293     
C           -67.2978    -10.88227   0.09318     
C           -68.24713   -12.08081   0.10343     
C           -69.19646   -13.27936   0.11368     
C           -70.14579   -14.4779    0.12393     
C           -71.09512   -15.67645   0.13417     
C           -60.87157   -4.259      1.24904     
C           -60.14131   -4.82701    2.46639     
C           -59.41106   -5.39501    3.68374     
C           -58.68081   -5.96301    4.9011      
C           -57.95055   -6.53101    6.11845     
C           -57.2203    -7.09901    7.3358      
C           -56.49005   -7.66702    8.55315     
C           -55.75979   -8.23502    9.7705      
C           -41.22566   -0.5096     0.00422     
C           -42.42069   0.20366     -0.00194    
N           -41.54736   -1.86381    0.01594     
C           -42.97157   -2.05931    0.01753     
C           -42.95133   1.54893     -0.01353    
O           -42.42558   2.65866     -0.02308    
O           -43.49706   -3.16892    0.02725     
C           -45.2786    2.49246     -0.02144    
C           -40.64648   -3.00387    0.02585     
C           -39.69852   -4.2035     0.03627     
H           -41.16702   -3.40766    0.89423     
H           -40.12593   -2.60008    -0.84253    
H           -44.75801   2.89738     -0.88927    
C           -46.22793   3.691       -0.03169    
H           -45.79918   2.08754     0.84639     
N           -44.37576   1.35262     -0.01169    
C           -43.50103   -0.71351    0.006       
C           -44.69528   -0.0        0.0         
C           -37.70627   0.02029     -0.00029    
C           -38.08718   1.34733     -0.01177    
O           -38.81058   -0.78362    0.00663     
H           -37.41852   2.19567     -0.0191     
H           -40.16666   2.21569     -0.01932    
C           -39.49848   1.36401     -0.01194    
C           -39.91155   0.04282     -0.00053    
C           -34.23047   -0.6397     0.00547     
C           -34.63074   -1.95791    0.01686     
O           -35.32845   0.17979     -0.00164    
H           -33.97744   -2.81812    0.02431     
H           -36.70981   -2.80412    0.02415     
C           -36.04769   -1.95078    0.01678     
C           -36.43435   -0.62803    0.00533     
C           -30.74779   -0.0        0.0         
C           -31.14871   1.32426     -0.01146    
O           -31.85648   -0.81701    0.00705     
H           -30.47213   2.16973     -0.01877    
H           -33.22143   2.17456     -0.01886    
C           -32.56006   1.32064     -0.01145    
C           -32.95207   -0.00369    -0.0        
C           -38.75057   -5.40313    0.04671     
C           -37.80262   -6.60277    0.05713     
C           -36.85466   -7.8024     0.06755     
C           -35.90671   -9.00203    0.07798     
C           -34.95876   -10.20167   0.08841     
C           -34.0108    -11.4013    0.09883     
C           -33.06285   -12.60093   0.10925     
C           -32.11489   -13.80056   0.11969     
C           -31.16694   -15.00018   0.13011     
C           -30.21899   -16.19982   0.14054     
C           -40.42872   -4.76992    1.2544      
C           -41.15892   -5.33634    2.47252     
C           -41.88911   -5.90276    3.69065     
C           -42.61931   -6.46918    4.90877     
C           -43.34951   -7.0356     6.12689     
C           -44.07971   -7.60201    7.34502     
C           -44.80991   -8.16843    8.56314     
C           -45.5401    -8.73485    9.78127     
C           -47.17726   4.88955     -0.04194    
C           -48.12659   6.08809     -0.05219    
C           -49.07592   7.28663     -0.06243    
C           -50.02525   8.48518     -0.07268    
C           -50.97458   9.68372     -0.08293    
C           -51.92391   10.88227    -0.09318    
C           -52.87324   12.08081    -0.10343    
C           -53.82257   13.27936    -0.11368    
C           -54.7719    14.4779     -0.12393    
C           -55.72123   15.67645    -0.13417    
C           -45.49767   4.259       -1.24904    
C           -44.76742   4.82701     -2.46639    
C           -44.03717   5.39501     -3.68374    
C           -43.30691   5.96301     -4.9011     
C           -42.57666   6.53101     -6.11845    
C           -41.84641   7.09901     -7.3358     
C           -41.11615   7.66702     -8.55315    
C           -40.3859    8.23502     -9.7705     
C           -25.85176   0.5096      -0.00422    
C           -27.0468    -0.20366    0.00194     
N           -26.17347   1.86381     -0.01594    
C           -27.59768   2.05931     -0.01753    
C           -27.57744   -1.54893    0.01353     
O           -27.05168   -2.65866    0.02308     
O           -28.12317   3.16892     -0.02725    
C           -29.9047    -2.49246    0.02144     
C           -25.27258   3.00387     -0.02585    
C           -24.32463   4.2035      -0.03627    
H           -25.79313   3.40766     -0.89423    
H           -24.75204   2.60008     0.84253     
H           -29.38412   -2.89738    0.88927     
C           -30.85403   -3.691      0.03169     
H           -30.42529   -2.08754    -0.84639    
N           -29.00187   -1.35262    0.01169     
C           -28.12713   0.71351     -0.006      
C           -29.32139   -0.0        0.0         
C           -22.33237   -0.02029    0.00029     
C           -22.71328   -1.34733    0.01177     
O           -23.43669   0.78362     -0.00663    
H           -22.04462   -2.19567    0.0191      
H           -24.79277   -2.21569    0.01932     
C           -24.12459   -1.36401    0.01194     
C           -24.53766   -0.04282    0.00053     
C           -18.85658   0.6397      -0.00547    
C           -19.25685   1.95791     -0.01686    
O           -19.95456   -0.17979    0.00164     
H           -18.60355   2.81812     -0.02431    
H           -21.33592   2.80412     -0.02415    
C           -20.67379   1.95078     -0.01678    
C           -21.06046   0.62803     -0.00533    
C           -15.37389   0.0         -0.0        
C           -15.77482   -1.32426    0.01146     
O           -16.48259   0.81701     -0.00705    
H           -15.09823   -2.16973    0.01877     
H           -17.84753   -2.17456    0.01886     
C           -17.18617   -1.32064    0.01145     
C           -17.57818   0.00369     0.0         
C           -23.37668   5.40313     -0.04671    
C           -22.42872   6.60277     -0.05713    
C           -21.48077   7.8024      -0.06755    
C           -20.53282   9.00203     -0.07798    
C           -19.58486   10.20167    -0.08841    
C           -18.63691   11.4013     -0.09883    
C           -17.68895   12.60093    -0.10925    
C           -16.741     13.80056    -0.11969    
C           -15.79305   15.00018    -0.13011    
C           -14.84509   16.19982    -0.14054    
C           -25.05483   4.76992     -1.2544     
C           -25.78502   5.33634     -2.47252    
C           -26.51522   5.90276     -3.69065    
C           -27.24542   6.46918     -4.90877    
C           -27.97561   7.0356      -6.12689    
C           -28.70581   7.60201     -7.34502    
C           -29.43601   8.16843     -8.56314    
C           -30.16621   8.73485     -9.78127    
C           -31.80336   -4.88955    0.04194     
C           -32.75269   -6.08809    0.05219     
C           -33.70202   -7.28663    0.06243     
C           -34.65135   -8.48518    0.07268     
C           -35.60068   -9.68372    0.08293     
C           -36.55001   -10.88227   0.09318     
C           -37.49934   -12.08081   0.10343     
C           -38.44867   -13.27936   0.11368     
C           -39.398     -14.4779    0.12393     
C           -40.34733   -15.67645   0.13417     
C           -30.12378   -4.259      1.24904     
C           -29.39353   -4.82701    2.46639     
C           -28.66327   -5.39501    3.68374     
C           -27.93302   -5.96301    4.9011      
C           -27.20277   -6.53101    6.11845     
C           -26.47251   -7.09901    7.3358      
C           -25.74226   -7.66702    8.55315     
C           -25.01201   -8.23502    9.7705      
C           -10.47787   -0.5096     0.00422     
C           -11.6729    0.20366     -0.00194    
N           -10.79957   -1.86381    0.01594     
C           -12.22379   -2.05931    0.01753     
C           -12.20354   1.54893     -0.01353    
O           -11.67779   2.65866     -0.02308    
O           -12.74927   -3.16892    0.02725     
C           -14.53081   2.49246     -0.02144    
C           -9.89869    -3.00387    0.02585     
C           -8.95074    -4.2035     0.03627     
H           -10.41923   -3.40766    0.89423     
H           -9.37814    -2.60008    -0.84253    
H           -14.01022   2.89738     -0.88927    
C           -15.48014   3.691       -0.03169    
H           -15.0514    2.08754     0.84639     
N           -13.62798   1.35262     -0.01169    
C           -12.75324   -0.71351    0.006       
C           -13.94749   0.0         -0.0        
C           -6.95848    0.02029     -0.00029    
C           -7.33939    1.34733     -0.01177    
O           -8.0628     -0.78362    0.00663     
H           -6.67073    2.19567     -0.0191     
H           -9.41887    2.21569     -0.01932    
C           -8.7507     1.36401     -0.01194    
C           -9.16376    0.04282     -0.00053    
C           -3.48269    -0.6397     0.00547     
C           -3.88295    -1.95791    0.01686     
O           -4.58066    0.17979     -0.00164    
H           -3.22966    -2.81812    0.02431     
H           -5.96202    -2.80412    0.02415     
C           -5.2999     -1.95078    0.01678     
C           -5.68656    -0.62803    0.00533     
C           0.0         0.0         0.0         
C           -0.40092    1.32426     -0.01146    
O           -1.1087     -0.81701    0.00705     
H           0.27566     2.16973     -0.01877    
H           -2.47364    2.17456     -0.01886    
C           -1.81227    1.32064     -0.01145    
C           -2.20429    -0.00369    -0.0        
C           -8.00279    -5.40313    0.04671     
C           -7.05483    -6.60277    0.05713     
C           -6.10688    -7.8024     0.06755     
C           -5.15892    -9.00203    0.07798     
C           -4.21097    -10.20167   0.08841     
C           -3.26301    -11.4013    0.09883     
C           -2.31506    -12.60093   0.10925     
C           -1.3671     -13.80056   0.11969     
C           -0.41915    -15.00018   0.13011     
C           0.5288      -16.19982   0.14054     
C           -9.68093    -4.76992    1.2544      
C           -10.41113   -5.33634    2.47252     
C           -11.14133   -5.90276    3.69065     
C           -11.87152   -6.46918    4.90877     
C           -12.60172   -7.0356     6.12689     
C           -13.33192   -7.60201    7.34502     
C           -14.06212   -8.16843    8.56314     
C           -14.79231   -8.73485    9.78127     
C           -16.42947   4.88955     -0.04194    
C           -17.3788    6.08809     -0.05219    
C           -18.32813   7.28663     -0.06243    
C           -19.27746   8.48518     -0.07268    
C           -20.22679   9.68372     -0.08293    
C           -21.17612   10.88227    -0.09318    
C           -22.12545   12.08081    -0.10343    
C           -23.07478   13.27936    -0.11368    
C           -24.02411   14.4779     -0.12393    
C           -24.97344   15.67645    -0.13417    
C           -14.74989   4.259       -1.24904    
C           -14.01963   4.82701     -2.46639    
C           -13.28938   5.39501     -3.68374    
C           -12.55913   5.96301     -4.9011     
C           -11.82887   6.53101     -6.11845    
C           -11.09862   7.09901     -7.3358     
C           -10.36837   7.66702     -8.55315    
C           -9.63811    8.23502     -9.7705     
H           -153.40253  -0.0        0.0         
H           1.09        0.0         0.0         
