512

C           64.85       31.37       40.79       
C           65.21       31.79       42.0        
S           65.47       29.8        40.42       
H           66.09       30.77       43.81       
H           65.0        32.73       42.51       
C           65.87       30.7        42.72       
C           66.2        29.6        41.92       
C           60.35       34.51       37.06       
C           60.34       34.05       38.38       
C           61.53       34.31       36.31       
C           61.51       33.5        38.93       
C           62.69       33.27       38.23       
C           61.55       33.07       40.29       
C           62.67       33.7        36.86       
C           63.75       33.38       35.94       
N           64.85       32.75       36.5        
C           64.97       32.43       37.84       
C           60.43       33.26       41.22       
N           59.22       33.68       40.63       
C           59.14       34.16       39.29       
O           60.52       32.91       42.39       
O           58.09       34.78       39.01       
O           63.64       33.71       34.79       
O           65.96       31.74       38.18       
C           66.14       32.63       35.7        
C           57.99       33.42       41.38       
H           66.8        31.78       35.87       
H           65.87       32.49       34.65       
H           66.67703    33.57852    35.7        
H           57.31       34.31       41.28       
H           58.16       33.38       42.43       
H           57.55127    32.47985    41.04573    
H           61.6        34.63       35.3        
H           62.51       31.88       41.65       
C           62.62       32.42       40.74       
C           63.86       32.74       38.8        
C           63.86       32.29       40.08       
C           57.13       34.63       35.0        
C           57.89       35.68       34.58       
S           57.93       33.65       36.15       
H           59.78       36.66       35.31       
H           57.56       36.41       33.84       
C           59.07       35.83       35.31       
C           59.21       34.81       36.21       
C           53.7        32.85       34.67       
C           53.95       33.55       33.49       
S           55.01       33.24       35.72       
H           55.36       34.87       32.54       
H           53.31       33.52       32.64       
C           55.15       34.3        33.41       
C           55.87       34.16       34.6        
C           51.42       29.75       35.44       
C           51.12       30.75       36.35       
S           52.53       30.34       34.21       
H           51.93       32.65       36.95       
H           50.34       30.62       37.13       
C           51.94       31.94       36.18       
C           52.66       31.92       35.02       
C           48.58       23.81       36.8        
C           49.9        24.14       36.37       
C           47.71       24.91       36.92       
C           50.18       25.52       36.08       
C           49.25       26.65       36.2        
C           51.48       25.95       35.78       
C           47.99       26.23       36.64       
C           46.85       27.16       36.7        
N           47.11       28.52       36.33       
C           48.38       28.96       35.99       
C           52.57       25.0        35.58       
N           52.24       23.66       35.74       
C           50.99       23.16       36.19       
O           53.67       25.4        35.21       
O           50.88       21.93       36.29       
O           45.75       26.82       37.14       
O           48.39       30.06       35.54       
C           46.13       29.59       36.57       
C           53.29       22.68       35.42       
H           46.51       30.61       36.54       
H           45.74       29.48       37.59       
H           45.24756    29.47427    35.94072    
H           53.27       21.81       36.02       
H           54.23       23.1        35.64       
H           53.28312    22.39787    34.36717    
H           46.67       24.73       37.15       
H           52.82       27.63       35.37       
C           51.73       27.37       35.5        
C           49.53       28.03       35.9        
C           50.81       28.38       35.57       
C           46.78       20.36       36.54       
C           46.4        20.99       37.66       
S           47.88       21.29       35.69       
H           46.84       22.81       38.85       
H           45.78       20.51       38.32       
C           47.02       22.22       37.9        
C           47.9        22.55       36.89       
C           46.75       16.73       35.05       
C           45.65       16.89       35.81       
S           47.6        18.22       34.98       
H           44.85       18.39       37.25       
H           44.87       16.13       35.87       
C           45.59       18.11       36.55       
C           46.57       18.98       36.15       
C           46.93       13.67       32.52       
C           48.24       14.16       32.8        
S           45.84       14.47       33.57       
H           49.3        15.83       33.86       
H           49.13       13.8        32.27       
C           48.34       15.25       33.7        
C           47.07       15.63       34.17       
C           47.0        9.75        27.31       
C           47.64       9.74        28.51       
C           46.08       10.81       27.09       
C           47.33       10.7        29.43       
C           46.37       11.76       29.26       
C           47.95       10.65       30.72       
C           45.74       11.73       27.99       
C           44.74       12.76       27.62       
N           44.48       13.79       28.58       
C           45.11       13.76       29.86       
C           49.09       9.76        31.07       
N           49.38       8.79        30.1        
C           48.68       8.72        28.88       
O           49.64       9.73        32.12       
O           49.04       7.87        28.16       
O           44.16       12.62       26.58       
O           44.67       14.54       30.75       
C           43.56       14.97       28.41       
C           50.52       7.91        30.28       
H           43.8        15.8        29.09       
H           42.56       14.79       28.72       
H           43.64426    15.47557    27.44802    
H           50.48       6.96        29.84       
H           50.62       7.7         31.3        
H           51.39796    8.45314     29.93031    
H           45.64       10.86       26.12       
H           48.1        11.57       32.67       
C           47.69       11.59       31.65       
C           46.1        12.71       30.23       
C           46.81       12.67       31.46       
C           48.09       7.6         24.21       
C           46.99       6.99        24.73       
S           48.51       9.0         25.03       
H           45.51       7.54        26.33       
H           46.6        6.04        24.37       
C           46.43       7.74        25.82       
C           47.12       8.88        26.12       
C           50.81       7.43        21.46       
C           49.83       6.58        21.12       
S           50.44       8.23        22.96       
H           47.95       5.8         22.07       
H           49.89       5.96        20.24       
C           48.81       6.46        22.09       
C           48.95       7.33        23.1        
C           53.96       8.23        19.19       
C           54.28       8.34        20.55       
S           52.23       7.93        19.12       
H           53.32       7.88        22.54       
H           55.22       8.71        20.87       
C           53.25       7.93        21.43       
C           52.09       7.62        20.85       
C           58.35       9.72        14.37       
C           57.95       10.32       15.58       
C           57.72       8.47        14.06       
C           57.04       9.69        16.44       
C           56.35       8.52        16.1        
C           56.51       10.39       17.58       
C           56.72       7.93        14.86       
C           55.96       6.79        14.35       
N           54.95       6.2         15.16       
C           54.69       6.75        16.47       
C           56.96       11.7        17.96       
N           57.87       12.25       17.14       
C           58.51       11.61       16.06       
O           56.51       12.25       18.96       
O           59.42       12.16       15.54       
O           56.19       6.4         13.29       
O           53.63       6.28        16.95       
C           54.61       4.83        14.91       
C           58.2        13.7        17.34       
H           54.08       4.31        15.67       
H           55.57       4.32        14.69       
H           53.90408    4.82308     14.0795     
H           59.3        13.86       17.36       
H           57.92       14.04       18.36       
H           57.80478    14.36341    16.57073    
H           57.75       8.08        13.03       
H           55.42       10.23       19.32       
C           55.58       9.75        18.42       
C           55.3        7.99        16.92       
C           54.98       8.53        18.17       
C           59.41       10.98       10.86       
C           60.18       9.89        11.15       
S           58.54       11.49       12.31       
H           60.48       8.41        12.75       
H           60.8        9.55        10.45       
C           59.97       9.34        12.45       
C           59.18       10.18       13.23       
C           59.24       12.17       7.09        
C           59.12       13.23       7.94        
S           59.36       10.69       8.1         
H           58.87       13.64       10.14       
H           59.08       14.25       7.64        
C           59.11       12.89       9.32        
C           59.35       11.59       9.58        
C           59.79       12.9        3.25        
C           59.59       11.57       3.39        
S           59.64       13.58       4.87        
H           59.23       10.01       4.96        
H           59.86       10.82       2.6         
C           59.26       11.08       4.74        
C           59.14       12.11       5.63        
C           62.68       16.61       -1.52       
C           62.96       15.4        -0.98       
C           61.54       17.3        -1.05       
C           62.06       14.82       -0.03       
C           60.85       15.4        0.47        
C           62.28       13.51       0.45        
C           60.62       16.73       -0.07       
C           59.31       17.4        0.2         
N           58.46       16.65       0.95        
C           58.79       15.52       1.74        
C           63.4        12.67       -0.02       
N           64.26       13.29       -0.92       
C           64.18       14.6        -1.34       
O           63.73       11.54       0.37        
O           65.01       15.03       -2.11       
O           58.99       18.38       -0.43       
O           57.9        15.14       2.5         
C           57.2        17.37       1.28        
C           65.66       12.81       -0.91       
H           57.46       18.42       1.41        
H           56.78       17.07       2.21        
H           56.46152    17.2645     0.48526     
H           66.08       12.88       -1.91       
H           65.57       11.77       -0.62       
H           66.31732    13.26453    -0.16876    
H           61.27       18.31       -1.47       
H           61.96       12.11       1.93        
C           61.6        12.99       1.49        
C           60.04       14.77       1.44        
C           60.36       13.5        2.0         
C           65.21       19.2        -2.98       
C           64.09       19.33       -3.72       
S           65.04       17.96       -1.78       
H           62.1        18.27       -3.68       
H           63.9        19.97       -4.54       
C           63.09       18.38       -3.26       
C           63.53       17.49       -2.33       
C           68.78       20.76       -2.89       
C           68.01       21.48       -3.77       
S           67.85       19.48       -2.21       
H           65.99       21.54       -4.49       
H           68.32       22.4        -4.3        
C           66.65       21.09       -3.79       
C           66.4        20.01       -3.04       
C           72.42       20.2        -1.81       
C           72.48       20.96       -2.91       
S           70.78       19.74       -1.43       
H           71.08       21.83       -4.36       
H           73.41       21.31       -3.3        
C           71.21       21.37       -3.38       
C           70.15       20.77       -2.66       
C           77.97       17.47       0.48        
C           76.78       16.96       -0.01       
C           78.13       18.85       0.59        
C           75.73       17.79       -0.54       
C           75.89       19.19       -0.51       
C           74.52       17.32       -0.96       
C           77.12       19.68       0.09        
C           77.46       21.07       0.18        
N           76.48       21.92       -0.33       
C           75.19       21.54       -0.64       
C           74.12       15.93       -0.99       
N           75.23       15.09       -0.56       
C           76.51       15.52       -0.05       
O           73.05       15.56       -1.39       
O           77.27       14.65       0.4         
O           78.44       21.46       0.71        
O           74.44       22.36       -1.1        
C           76.79       23.37       -0.07       
C           74.87       13.62       -0.4        
H           77.27       23.41       0.87        
H           75.95       24.02       -0.05       
H           77.45184    23.79183    -0.82639    
H           75.8        12.97       -0.4        
H           74.29       13.34       -1.27       
H           74.31491    13.47947    0.52749     
H           79.1        19.17       1.07        
H           72.68       17.76       -1.88       
C           73.56       18.22       -1.37       
C           74.9        20.09       -0.78       
C           73.68       19.63       -1.2        
C           80.86       15.7        2.5         
C           81.18       15.78       1.22        
S           79.27       16.36       2.78        
H           80.22       16.52       -0.69       
H           82.03       15.34       0.83        
C           80.16       16.34       0.37        
C           79.08       16.77       1.08        
C           82.86       14.17       5.52        
C           82.95       13.29       4.46        
S           81.81       15.49       5.18        
H           82.23       13.38       2.31        
H           83.45       12.35       4.48        
C           82.19       13.74       3.34        
C           81.53       14.93       3.53        
C           84.72       14.7        8.91        
C           84.41       13.37       8.79        
S           84.26       15.49       7.44        
H           83.33       11.95       7.55        
H           84.79       12.68       9.52        
C           83.72       13.02       7.61        
C           83.53       14.07       6.8         
C           88.12       16.29       14.34       
C           87.05       16.9        13.64       
C           88.8        15.36       13.58       
C           86.67       16.51       12.37       
C           87.28       15.34       11.7        
C           85.48       17.03       11.73       
C           88.43       14.85       12.44       
C           89.23       13.7        11.97       
N           88.77       13.11       10.75       
C           87.74       13.7        9.95        
C           84.63       18.05       12.26       
N           84.96       18.42       13.61       
C           86.13       17.94       14.24       
O           83.62       18.39       11.77       
O           86.22       18.15       15.38       
O           90.18       13.2        12.59       
O           87.47       13.1        8.89        
C           89.65       12.06       10.21       
C           83.98       19.21       14.36       
H           90.67       12.31       10.33       
H           89.5        12.02       9.09        
H           89.4851     11.0491     10.58281    
H           83.93       18.79       15.4        
H           83.0        19.16       13.93       
H           84.27387    20.25954    14.37399    
H           89.6        14.83       14.08       
H           84.15       16.71       10.08       
C           85.06       16.43       10.56       
C           86.86       14.82       10.5        
C           85.68       15.34       9.88        
C           89.91       17.72       17.54       
C           89.86       16.3        17.62       
S           89.19       18.27       16.11       
H           89.01       14.65       16.38       
H           90.37       15.66       18.35       
C           89.2        15.72       16.49       
C           88.75       16.65       15.62       
C           92.26       20.33       19.02       
C           92.23       19.31       19.98       
S           90.98       20.23       17.79       
H           91.14       17.46       20.11       
H           92.85       19.21       20.88       
C           91.31       18.35       19.6        
C           90.68       18.63       18.37       
C           94.74       23.23       19.61       
C           93.99       23.57       18.49       
S           94.18       21.77       20.23       
H           92.48       22.59       17.21       
H           94.15       24.42       17.95       
C           93.05       22.62       18.13       
C           93.02       21.58       18.99       
C           98.66       28.18       21.55       
C           97.41       27.74       22.02       
C           99.29       27.44       20.53       
C           96.88       26.59       21.38       
C           97.54       25.83       20.32       
C           95.55       26.17       21.73       
C           98.79       26.34       19.84       
C           99.57       25.84       18.74       
N           98.97       24.69       18.14       
C           97.7        24.12       18.45       
C           94.64       26.94       22.55       
N           95.24       28.1        23.1        
C           96.61       28.46       23.02       
O           93.45       26.53       22.61       
O           96.98       29.53       23.64       
O           100.64      26.28       18.31       
O           97.21       23.17       17.82       
C           99.58       24.05       16.9        
C           94.3        29.07       23.73       
H           99.99       24.93       16.44       
H           98.89       23.75       16.16       
H           100.20777   23.18681    17.12115    
H           94.79       29.38       24.68       
H           93.38       28.53       24.02       
H           93.94315    29.86934    23.08053    
H           100.26      27.81       20.31       
H           94.14       24.7        21.47       
C           95.08       25.04       21.1        
C           96.92       24.74       19.59       
C           95.69       24.28       20.07       
C           100.4       31.65       21.86       
C           100.16      31.24       23.12       
S           99.91       30.45       20.69       
H           99.39       29.41       24.12       
H           100.4       31.85       23.96       
C           99.64       29.93       23.17       
C           99.46       29.37       21.91       
C           101.96      35.01       20.44       
C           101.46      35.24       21.73       
S           101.69      33.32       19.98       
H           100.44      34.07       23.33       
H           101.47      36.24       22.16       
C           100.91      34.08       22.34       
C           100.9       32.96       21.53       
C           103.47      36.97       17.48       
C           103.6       37.79       18.53       
S           102.97      35.4        17.93       
H           102.91      37.79       20.67       
H           103.98      38.81       18.39       
C           103.04      37.25       19.77       
C           102.61      35.93       19.56       
C           105.91      38.63       11.45       
C           106.48      38.53       12.7        
C           104.52      38.42       11.46       
C           105.69      38.22       13.89       
C           104.33      37.88       13.78       
C           106.18      38.28       15.23       
C           103.79      37.9        12.49       
C           102.43      37.49       12.17       
N           101.63      37.1        13.27       
C           102.07      37.02       14.58       
C           107.56      38.72       15.5        
N           108.42      38.77       14.4        
C           107.92      38.74       13.01       
O           107.97      38.81       16.63       
O           108.86      38.76       12.2        
O           102.14      37.34       10.96       
O           101.28      36.64       15.47       
C           100.36      36.41       12.93       
C           109.77      39.36       14.55       
H           99.93       35.75       13.7        
H           100.57      35.85       12.06       
H           99.65224    37.16781    12.59399    
H           110.44      38.74       13.97       
H           110.04      39.32       15.64       
H           109.87156   40.38285    14.18729    
H           103.94      38.52       10.54       
H           105.8       38.0        17.31       
C           105.38      37.87       16.27       
C           103.49      37.43       14.9        
C           104.05      37.37       16.17       
C           107.38      40.82       8.57        
C           106.92      39.7        7.99        
S           107.04      40.86       10.25       
H           105.88      37.87       8.67        
H           106.88      39.5        6.94        
C           106.31      38.86       8.98        
C           106.44      39.23       10.26       
C           109.14      44.2        7.48        
C           108.5       43.64       6.41        
S           108.86      43.19       8.92        
H           107.04      41.99       5.99        
H           108.51      44.07       5.41        
C           107.74      42.47       6.74        
C           107.94      42.03       7.99        
C           110.96      47.64       7.06        
C           111.79      46.8        7.8         
S           109.52      46.75       6.61        
H           111.81      44.76       8.52        
H           112.8       47.02       8.05        
C           111.28      45.52       8.02        
C           110.05      45.35       7.51        
C           111.61      53.66       4.48        
C           112.41      52.55       4.39        
C           110.46      53.63       5.31        
C           112.06      51.34       5.06        
C           110.91      51.27       5.89        
C           112.83      50.12       4.99        
C           110.1       52.46       6.09        
C           108.92      52.65       6.99        
N           108.7       51.53       7.79        
C           109.39      50.29       7.62        
C           114.06      50.11       4.13        
N           114.33      51.33       3.46        
C           113.55      52.49       3.47        
O           114.68      49.06       4.14        
O           113.78      53.34       2.57        
O           108.3       53.71       7.03        
O           109.0       49.31       8.31        
C           107.37      51.35       8.39        
C           115.7       51.54       3.04        
H           107.03      50.31       8.7         
H           106.67      51.57       7.58        
H           107.20802   52.0613     9.19989     
H           115.8       51.74       1.99        
H           116.31      50.7        3.16        
H           116.22073   52.35726    3.53903     
H           109.82      54.43       5.33        
H           112.99      48.03       5.5         
C           112.44      48.98       5.7         
C           110.6       50.13       6.67        
C           111.4       48.93       6.59        
C           112.95      57.16       3.26        
C           111.62      57.11       2.97        
S           113.43      55.86       4.31        
H           109.97      55.64       3.1         
H           111.13      57.99       2.47        
C           111.03      55.81       3.27        
C           111.95      54.99       3.93        
C           114.82      60.57       2.77        
C           115.72      59.59       2.72        
S           113.22      59.93       3.18        
H           115.79      57.45       3.08        
H           116.81      59.8        2.47        
C           115.14      58.35       2.94        
C           113.78      58.27       2.95        
H           67.09       29.06       42.12       
H           115.01      61.65       2.66        
