512

C           61.33       0.71        6.55        
C           62.0        1.06        5.42        
S           61.72       1.81        7.84        
H           63.37       2.65        4.79        
H           61.93       0.46        4.51        
C           62.78       2.2         5.61        
C           62.93       2.61        6.86        
C           57.71       -4.56       7.21        
C           58.98       -4.41       6.69        
C           56.97       -3.43       7.72        
C           59.55       -3.13       6.66        
C           58.79       -2.03       7.16        
C           60.81       -2.88       6.14        
C           57.5        -2.19       7.64        
C           56.61       -1.05       7.96        
N           57.25       0.23        7.87        
C           58.54       0.42        7.48        
C           61.7        -3.94       5.66        
N           61.14       -5.22       5.58        
C           59.87       -5.5        6.08        
O           62.89       -3.74       5.41        
O           59.52       -6.7        6.05        
O           55.42       -1.13       8.16        
O           58.82       1.57        7.4         
C           56.66       1.36        8.66        
C           61.95       -6.34       5.07        
H           56.75       2.27        8.1         
H           55.59       1.25        8.7         
H           57.02417    1.38913     9.68695     
H           61.8        -7.31       5.61        
H           62.97       -6.03       5.26        
H           61.8869     -6.39609    3.98327     
H           55.95       -3.5        8.03        
H           62.31       -1.39       5.76        
C           61.31       -1.58       6.07        
C           59.36       -0.74       7.13        
C           60.63       -0.53       6.6         
C           55.5        -7.78       7.12        
C           55.53       -7.29       8.43        
S           56.53       -6.89       6.08        
H           56.45       -5.47       9.29        
H           54.91       -7.73       9.17        
C           56.26       -6.11       8.45        
C           56.86       -5.75       7.31        
C           53.32       -10.95      6.42        
C           53.9        -10.6       5.29        
S           53.96       -10.05      7.74        
H           55.21       -9.12       4.46        
H           53.72       -11.16      4.38        
C           54.74       -9.46       5.36        
C           54.84       -8.99       6.65        
C           50.77       -13.92      6.52        
C           50.92       -13.55      7.8         
S           51.68       -12.91      5.45        
H           52.08       -12.15      8.94        
H           50.46       -14.03      8.68        
C           51.82       -12.43      7.96        
C           52.3        -11.96      6.74        
C           45.67       -17.95      5.42        
C           47.06       -18.16      5.5         
C           45.24       -16.64      5.69        
C           47.9        -17.08      5.85        
C           47.38       -15.74      6.03        
C           49.3        -17.31      6.06        
C           46.01       -15.53      5.9         
C           45.33       -14.23      6.1         
N           46.26       -13.18      6.34        
C           47.67       -13.36      6.32        
C           49.95       -18.61      5.87        
N           49.12       -19.64      5.45        
C           47.75       -19.46      5.2         
O           51.18       -18.75      5.98        
O           47.11       -20.53      5.02        
O           44.09       -14.13      5.94        
O           48.37       -12.35      6.44        
C           45.79       -11.74      6.44        
C           49.66       -21.0       5.25        
H           45.23       -11.47      5.55        
H           46.59       -11.08      6.56        
H           45.13672    -11.58585   7.29881     
H           49.02       -21.71      5.78        
H           50.7        -21.02      5.52        
H           49.66725    -21.26095   4.19172     
H           44.13       -16.53      5.44        
H           51.15       -16.43      6.27        
C           50.14       -16.19      6.14        
C           48.28       -14.69      6.23        
C           49.67       -14.85      6.19        
C           43.16       -19.99      3.17        
C           42.44       -19.44      4.18        
S           44.82       -19.55      3.34        
H           42.93       -18.31      6.14        
H           41.35       -19.42      4.25        
C           43.29       -18.74      5.21        
C           44.61       -18.71      4.8         
C           42.48       -22.26      0.01        
C           41.23       -21.93      0.57        
S           43.77       -21.52      0.96        
H           40.58       -20.84      2.38        
H           40.22       -22.23      0.27        
C           41.38       -21.14      1.75        
C           42.67       -20.81      2.09        
C           42.32       -24.87      -2.87       
C           43.62       -24.46      -2.8        
S           41.3        -24.12      -1.65       
H           44.82       -23.12      -1.54       
H           44.33       -24.94      -3.51       
C           43.84       -23.48      -1.82       
C           42.73       -23.22      -1.06       
C           41.55       -29.7       -7.23       
C           41.3        -29.65      -5.89       
C           41.99       -28.54      -7.89       
C           41.46       -28.36      -5.19       
C           41.92       -27.2       -5.85       
C           41.19       -28.25      -3.79       
C           42.14       -27.3       -7.26       
C           42.76       -26.23      -8.14       
N           42.82       -25.01      -7.48       
C           42.63       -24.86      -6.08       
C           40.96       -29.38      -2.88       
N           40.75       -30.58      -3.54       
C           40.8        -30.78      -4.95       
O           40.61       -29.2       -1.79       
O           40.62       -31.9       -5.46       
O           42.82       -26.43      -9.31       
O           42.78       -23.72      -5.62       
C           42.73       -23.79      -8.25       
C           40.33       -31.73      -2.71       
H           42.19       -22.94      -7.72       
H           42.19       -23.97      -9.21       
H           43.72394    -23.4392    -8.52772    
H           39.57       -32.25      -3.28       
H           39.82       -31.34      -1.77       
H           41.03677    -32.50963   -2.42583    
H           42.25       -28.7       -8.92       
H           41.2        -26.96      -2.05       
C           41.39       -27.01      -3.12       
C           42.21       -25.99      -5.19       
C           41.92       -25.9       -3.85       
C           42.34       -32.74      -9.51       
C           41.15       -32.13      -9.95       
S           42.91       -32.04      -8.06       
H           39.99       -30.35      -9.37       
H           40.55       -32.48      -10.74      
C           40.79       -31.04      -9.22       
C           41.58       -30.92      -8.06       
C           44.26       -35.44      -11.6       
C           44.65       -35.62      -10.3       
S           43.13       -34.09      -11.79      
H           44.33       -34.44      -8.36       
H           45.37       -36.4       -9.97       
C           44.09       -34.59      -9.43       
C           43.08       -33.86      -10.04      
C           46.02       -37.82      -14.3       
C           44.91       -37.26      -14.8       
S           46.16       -37.17      -12.73      
H           43.24       -35.98      -14.33      
H           44.59       -37.42      -15.78      
C           44.24       -36.28      -14.03      
C           44.79       -36.13      -12.8       
C           49.64       -41.93      -17.8       
C           49.97       -40.86      -16.93      
C           48.34       -42.26      -18.05      
C           48.92       -40.16      -16.33      
C           47.55       -40.47      -16.54      
C           49.15       -39.15      -15.4       
C           47.26       -41.54      -17.43      
C           45.89       -42.05      -17.7       
N           44.82       -41.44      -16.98      
C           45.05       -40.25      -16.17      
C           50.53       -38.81      -14.96      
N           51.58       -39.5       -15.61      
C           51.38       -40.5       -16.6       
O           50.7        -38.01      -14.09      
O           52.45       -41.13      -17.04      
O           45.73       -42.95      -18.48      
O           44.1        -39.87      -15.45      
C           43.55       -41.69      -17.64      
C           52.94       -38.97      -15.42      
H           43.68       -41.62      -18.72      
H           42.79       -40.87      -17.38      
H           43.112      -42.67381   -17.47154   
H           53.58       -39.74      -15.74      
H           53.13       -38.73      -14.32      
H           53.13164    -38.0597    -15.98808   
H           48.11       -43.21      -18.53      
H           48.5        -37.84      -14.01      
C           48.13       -38.54      -14.77      
C           46.45       -39.78      -15.88      
C           46.81       -38.8       -14.95      
C           51.95       -44.72      -19.35      
C           51.27       -44.1       -20.33      
S           51.67       -43.87      -17.84      
H           49.54       -42.63      -20.52      
H           51.47       -44.5       -21.38      
C           50.36       -43.08      -19.89      
C           50.54       -42.79      -18.57      
C           54.98       -47.18      -19.94      
C           54.37       -47.61      -18.8       
S           54.04       -45.88      -20.62      
H           52.65       -47.0       -17.59      
H           54.72       -48.43      -18.19      
C           53.21       -46.84      -18.52      
C           52.83       -45.86      -19.42      
C           58.57       -48.27      -20.87      
C           58.21       -47.28      -21.75      
S           57.19       -48.7       -19.91      
H           56.38       -46.05      -22.22      
H           58.78       -47.02      -22.65      
C           56.88       -46.81      -21.61      
C           56.25       -47.43      -20.59      
C           64.73       -50.58      -21.94      
C           63.56       -51.2       -21.71      
C           64.69       -49.16      -22.02      
C           62.35       -50.43      -21.45      
C           62.36       -49.02      -21.35      
C           61.09       -51.05      -21.17      
C           63.59       -48.36      -21.73      
C           63.72       -46.9       -21.94      
N           62.58       -46.14      -21.59      
C           61.35       -46.73      -21.06      
C           60.9        -52.53      -21.25      
N           62.09       -53.17      -21.58      
C           63.43       -52.67      -21.7       
O           59.83       -53.1       -21.11      
O           64.3        -53.46      -21.95      
O           64.83       -46.52      -22.42      
O           60.56       -45.92      -20.62      
C           62.79       -44.69      -21.36      
C           61.92       -54.62      -21.83      
H           63.8        -44.57      -20.89      
H           62.08       -44.27      -20.71      
H           62.72719    -44.11075   -22.28121   
H           62.59       -54.93      -22.61      
H           60.89       -54.8       -22.2       
H           62.07473    -55.2168    -20.93112   
H           65.54       -48.66      -22.42      
H           59.01       -50.82      -20.8       
C           59.96       -50.24      -20.96      
C           61.17       -48.23      -21.06      
C           59.93       -48.81      -20.83      
C           68.48       -51.39      -22.83      
C           67.69       -52.15      -23.64      
S           67.51       -50.37      -21.82      
H           65.59       -52.56      -23.92      
H           67.99       -52.79      -24.45      
C           66.36       -51.99      -23.39      
C           66.05       -51.04      -22.41      
C           72.2        -51.08      -23.67      
C           72.03       -50.58      -22.38      
S           70.67       -51.56      -24.36      
H           70.36       -50.67      -20.83      
H           72.84       -50.14      -21.8       
C           70.72       -50.89      -21.83      
C           69.87       -51.33      -22.85      
C           75.6        -50.17      -25.5       
C           74.99       -51.25      -26.19      
S           74.53       -49.73      -24.17      
H           73.18       -52.4       -25.97      
H           75.35       -51.7       -27.12      
C           73.67       -51.51      -25.67      
C           73.33       -50.91      -24.51      
C           81.39       -47.79      -27.62      
C           80.94       -49.12      -27.35      
C           80.6        -46.69      -27.32      
C           79.6        -49.32      -26.97      
C           78.7        -48.18      -26.71      
C           79.07       -50.6       -26.66      
C           79.28       -46.87      -26.91      
C           78.53       -45.67      -26.53      
N           77.18       -45.86      -26.25      
C           76.59       -47.14      -26.03      
C           79.88       -51.79      -26.78      
N           81.22       -51.61      -27.13      
C           81.78       -50.41      -27.49      
O           79.42       -52.89      -26.36      
O           82.94       -50.41      -27.83      
O           79.05       -44.59      -26.75      
O           75.44       -47.18      -25.61      
C           76.14       -44.73      -26.56      
C           82.17       -52.71      -27.01      
H           75.16       -44.95      -26.07      
H           75.96       -44.6       -27.58      
H           76.46678    -43.77748   -26.14284   
H           82.85       -52.8       -27.87      
H           81.59       -53.59      -26.99      
H           82.69713    -52.66269   -26.05711   
H           80.99       -45.7       -27.48      
H           77.4        -51.7       -25.86      
C           77.74       -50.71      -26.27      
C           77.42       -48.38      -26.21      
C           76.89       -49.62      -25.97      
C           85.19       -46.75      -27.46      
C           84.69       -46.17      -28.56      
S           84.01       -47.73      -26.61      
H           82.64       -45.98      -29.42      
H           85.27       -45.51      -29.18      
C           83.27       -46.45      -28.67      
C           82.81       -47.39      -27.79      
C           88.83       -46.34      -26.13      
C           88.37       -47.56      -25.78      
S           87.57       -45.51      -26.93      
H           86.52       -48.81      -26.07      
H           88.94       -48.28      -25.16      
C           87.03       -47.84      -26.16      
C           86.5        -46.87      -26.93      
C           91.56       -43.88      -25.02      
C           92.1        -45.16      -25.18      
S           89.89       -44.05      -25.38      
H           91.38       -47.24      -25.71      
H           93.15       -45.3       -25.0       
C           91.21       -46.2       -25.57      
C           90.0        -45.73      -25.76      
C           95.15       -38.82      -22.58      
C           93.84       -39.24      -22.38      
C           95.98       -39.64      -23.4       
C           93.35       -40.38      -23.1       
C           94.18       -41.19      -23.92      
C           92.04       -40.86      -22.87      
C           95.52       -40.74      -24.02      
C           96.54       -41.53      -24.83      
N           96.04       -42.63      -25.56      
C           94.71       -43.06      -25.55      
C           91.15       -40.2       -21.98      
N           91.63       -39.14      -21.19      
C           92.98       -38.65      -21.25      
O           90.08       -40.68      -21.78      
O           93.36       -37.84      -20.37      
O           97.73       -41.19      -24.94      
O           94.41       -43.87      -26.41      
C           96.9        -43.63      -26.23      
C           90.67       -38.13      -20.68      
H           96.92       -43.45      -27.31      
H           96.45       -44.6       -26.13      
H           97.88567    -43.77081   -25.78645   
H           91.13       -37.68      -19.87      
H           89.74       -38.68      -20.44      
H           90.41447    -37.40599   -21.4537    
H           97.02       -39.41      -23.46      
H           90.58       -42.34      -23.44      
C           91.59       -41.97      -23.64      
C           93.72       -42.32      -24.68      
C           92.38       -42.67      -24.62      
C           96.54       -35.42      -21.16      
C           97.38       -36.44      -20.74      
S           95.28       -36.13      -22.13      
H           97.55       -38.65      -21.01      
H           98.17       -36.33      -20.1       
C           97.04       -37.73      -21.28      
C           95.87       -37.74      -21.93      
C           97.17       -31.93      -19.61      
C           96.12       -31.79      -20.5       
S           97.68       -33.58      -19.56      
H           95.08       -33.04      -21.94      
H           95.65       -30.84      -20.64      
C           95.78       -32.98      -21.15      
C           96.53       -34.07      -20.76      
C           99.08       -28.99      -18.16      
C           99.29       -30.03      -17.3       
S           97.89       -29.38      -19.39      
H           98.77       -32.2       -17.15      
H           99.98       -30.01      -16.4       
C           98.59       -31.21      -17.67      
C           97.8        -30.99      -18.77      
C           101.78      -22.94      -17.33      
C           101.19      -23.84      -16.38      
C           101.81      -23.31      -18.68      
C           100.83      -25.12      -16.9       
C           101.02      -25.55      -18.28      
C           100.26      -26.1       -16.11      
C           101.42      -24.57      -19.21      
C           101.57      -24.77      -20.66      
N           101.11      -26.03      -21.07      
C           100.66      -27.02      -20.16      
C           100.01      -25.88      -14.62      
N           100.27      -24.56      -14.19      
C           100.84      -23.5       -14.95      
O           99.49       -26.72      -13.85      
O           100.81      -22.34      -14.51      
O           101.92      -23.85      -21.4       
O           100.26      -28.0       -20.79      
C           101.08      -26.23      -22.54      
C           100.07      -24.31      -12.78      
H           100.34      -25.59      -22.98      
H           100.77      -27.18      -22.79      
H           102.06944   -26.1787    -22.99441   
H           100.86      -23.71      -12.38      
H           99.96       -25.17      -12.21      
H           99.16624    -23.70749   -12.68892   
H           102.03      -22.58      -19.42      
H           99.24       -27.87      -15.82      
C           99.69       -27.3       -16.54      
C           100.46      -26.79      -18.73      
C           99.77       -27.66      -17.89      
C           103.75      -19.69      -15.96      
C           103.2       -19.43      -17.16      
S           103.43      -21.38      -15.54      
H           101.66      -20.44      -18.53      
H           103.14      -18.45      -17.59      
C           102.35      -20.56      -17.72      
C           102.42      -21.7       -16.93      
C           105.4       -16.85      -13.86      
C           105.71      -18.01      -13.27      
S           104.57      -17.12      -15.37      
H           105.21      -20.15      -13.5       
H           106.24      -18.01      -12.37      
C           105.08      -19.16      -13.93      
C           104.47      -18.83      -15.16      
C           105.79      -13.04      -13.34      
C           105.93      -13.6       -12.09      
S           105.47      -14.23      -14.57      
H           105.88      -15.71      -11.24      
H           106.08      -12.93      -11.21      
C           105.8       -15.05      -12.12      
C           105.57      -15.51      -13.38      
C           105.91      -6.58       -14.12      
C           106.9       -7.44       -13.83      
C           104.64      -7.06       -14.47      
C           106.55      -8.8        -13.76      
C           105.23      -9.36       -14.11      
C           107.43      -9.78       -13.36      
C           104.32      -8.39       -14.5       
C           102.95      -8.7        -15.01      
N           102.59      -10.1       -14.92      
C           103.49      -11.07      -14.55      
C           108.81      -9.47       -13.13      
N           109.09      -8.08       -13.1       
C           108.21      -7.02       -13.39      
O           109.6       -10.32      -12.78      
O           108.68      -5.9        -13.43      
O           102.07      -7.85       -15.27      
O           103.16      -12.25      -14.37      
C           101.43      -10.57      -15.63      
C           110.19      -7.61       -12.29      
H           101.55      -11.58      -15.78      
H           101.45      -10.09      -16.63      
H           100.51822   -10.48247   -15.03916   
H           110.73      -6.79       -12.85      
H           110.92      -8.44       -12.15      
H           109.9129    -7.30447    -11.28106   
H           103.92      -6.35       -14.84      
H           107.78      -11.73      -13.09      
C           107.02      -11.06      -13.34      
C           104.85      -10.71      -14.1       
C           105.77      -11.58      -13.59      
C           106.64      -2.71       -14.99      
C           106.03      -2.96       -13.71      
S           106.69      -4.33       -15.71      
H           105.01      -4.57       -12.65      
H           105.76      -2.18       -13.07      
C           105.62      -4.26       -13.44      
C           106.06      -5.18       -14.32      
C           107.63      0.11        -17.42      
C           107.18      0.73        -16.31      
S           107.78      -1.6        -17.26      
H           106.39      0.15        -14.36      
H           107.23      1.83        -16.23      
C           106.87      -0.19       -15.27      
C           107.1       -1.5        -15.68      
C           107.99      1.19        -21.08      
C           108.26      2.28        -20.3       
S           107.81      -0.2        -20.07      
H           108.56      2.73        -18.15      
H           108.4       3.33        -20.61      
C           108.34      2.04        -18.93      
C           108.06      0.71        -18.68      
C           108.53      1.2         -27.57      
C           109.49      1.42        -26.54      
C           107.23      0.89        -27.22      
C           108.98      1.33        -25.18      
C           107.63      1.04        -24.86      
C           109.8       1.5         -24.07      
C           106.79      0.78        -25.93      
C           105.43      0.41        -25.75      
N           104.97      0.29        -24.41      
C           105.73      0.56        -23.28      
C           111.25      1.64        -24.29      
N           111.7       1.76        -25.63      
C           110.92      1.74        -26.78      
O           111.98      1.65        -23.34      
O           111.49      1.84        -27.94      
O           104.79      0.18        -26.67      
O           105.31      0.41        -22.11      
C           103.53      0.24        -24.19      
C           113.16      2.14        -25.79      
H           103.09      0.97        -24.85      
H           103.46      0.47        -23.15      
H           103.18815   -0.78556    -24.32953   
H           113.54      1.68        -26.63      
H           113.68      1.96        -24.84      
H           113.26206   3.21892     -25.90664   
H           106.6       0.58        -28.11      
H           110.01      1.53        -22.0       
C           109.34      1.4         -22.8       
C           107.17      0.88        -23.54      
C           107.96      1.26        -22.52      
C           108.66      0.8         -31.51      
C           109.2       2.0         -31.21      
S           108.2       -0.05       -30.05      
H           109.57      3.21        -29.48      
H           109.54      2.66        -31.99      
C           109.21      2.29        -29.79      
C           108.83      1.22        -29.05      
C           108.71      -0.38       -35.3       
C           107.75      -1.07       -34.69      
S           109.57      0.65        -34.15      
H           106.73      -0.97       -32.65      
H           106.97      -1.55       -35.26      
C           107.54      -0.7        -33.34      
C           108.54      0.2         -32.84      
H           63.79       3.06        7.27        
H           108.97      -0.55       -36.34      
