512

C           65.68       37.74       2.0         
C           66.5        37.28       2.95        
S           66.31       39.16       1.3         
H           68.42       37.98       3.9         
H           66.26       36.38       3.52        
C           67.63       38.08       3.14        
C           67.62       39.33       2.47        
C           59.48       35.68       0.73        
C           60.62       35.69       -0.1        
C           59.62       35.95       2.14        
C           61.85       36.2        0.54        
C           61.95       36.64       1.9         
C           63.1        36.15       -0.12       
C           60.78       36.49       2.68        
C           60.63       36.87       4.07        
N           61.82       37.28       4.7         
C           63.06       37.49       4.02        
C           63.22       35.63       -1.51       
N           62.0        35.37       -2.18       
C           60.73       35.31       -1.52       
O           64.28       35.62       -2.15       
O           59.74       35.14       -2.21       
O           59.55       36.93       4.62        
O           64.01       37.86       4.69        
C           61.67       37.91       5.99        
C           61.93       35.08       -3.63       
H           62.35       38.7        6.11        
H           60.7        38.37       5.89        
H           61.78352    37.16503    6.77754     
H           61.38       34.15       -3.9        
H           62.85       34.8        -3.92       
H           61.55522    35.90452    -4.23647    
H           58.83       35.69       2.82        
H           65.17       36.73       -0.31       
C           64.26       36.72       0.39        
C           63.15       37.15       2.49        
C           64.34       37.24       1.71        
C           55.59       34.8        0.94        
C           56.19       33.89       0.18        
S           56.72       36.04       1.42        
H           58.23       33.54       -0.59       
H           55.74       32.98       -0.29       
C           57.57       34.16       -0.01       
C           58.05       35.26       0.58        
C           52.04       33.87       2.34        
C           52.31       35.18       2.77        
S           53.45       33.17       1.52        
H           53.94       36.64       2.41        
H           51.59       35.9        3.22        
C           53.61       35.58       2.28        
C           54.29       34.67       1.55        
C           49.11       31.39       2.6         
C           48.57       32.57       3.0         
S           50.73       31.55       2.06        
H           49.32       34.64       3.16        
H           47.51       32.68       3.28        
C           49.5        33.65       2.93        
C           50.75       33.23       2.47        
C           45.21       26.1        1.47        
C           46.07       26.52       2.51        
C           45.06       26.98       0.41        
C           46.68       27.75       2.46        
C           46.52       28.7        1.45        
C           47.57       28.16       3.47        
C           45.62       28.25       0.45        
C           45.29       29.28       -0.61       
N           46.0        30.5        -0.56       
C           47.03       30.9        0.36        
C           47.98       27.28       4.58        
N           47.33       26.11       4.61        
C           46.4        25.62       3.65        
O           48.86       27.5        5.4         
O           45.87       24.52       3.78        
O           44.51       28.91       -1.49       
O           47.64       31.91       0.18        
C           46.22       31.03       -1.88       
C           47.48       25.21       5.74        
H           46.26       30.16       -2.56       
H           47.18       31.57       -2.05       
H           45.43311    31.71151    -2.20319    
H           46.56       24.56       5.86        
H           47.51       25.86       6.64        
H           48.32785    24.52882    5.66753     
H           44.35       26.81       -0.44       
H           48.89       29.41       4.32        
C           48.3        29.3        3.43        
C           47.3        29.94       1.48        
C           48.26       30.24       2.39        
C           44.53       22.51       -0.0        
C           43.35       23.26       -0.06       
S           45.75       23.36       0.94        
H           42.64       25.3        0.48        
H           42.59       23.01       -0.8        
C           43.43       24.54       0.54        
C           44.73       24.74       1.13        
C           45.09       19.39       -2.29       
C           46.09       19.42       -1.33       
S           43.9        20.62       -1.91       
H           46.66       20.69       0.41        
H           46.97       18.9        -1.31       
C           45.96       20.5        -0.44       
C           44.88       21.27       -0.6        
C           44.59       16.36       -4.76       
C           43.73       17.36       -5.08       
S           45.68       16.88       -3.44       
H           43.32       19.41       -4.37       
H           43.0        17.31       -5.87       
C           43.92       18.54       -4.27       
C           44.83       18.42       -3.33       
C           45.52       10.74       -8.09       
C           45.15       11.03       -6.8        
C           45.58       11.81       -8.97       
C           45.07       12.4        -6.39       
C           45.15       13.51       -7.33       
C           44.88       12.79       -5.07       
C           45.39       13.14       -8.66       
C           45.24       14.13       -9.77       
N           45.12       15.47       -9.34       
C           45.04       15.88       -7.97       
C           44.82       11.77       -4.03       
N           44.61       10.45       -4.42       
C           44.77       10.01       -5.72       
O           44.67       12.06       -2.79       
O           44.51       8.9         -6.0        
O           45.4        13.81       -10.94      
O           45.12       17.07       -7.75       
C           45.11       16.46       -10.44      
C           44.34       9.45        -3.41       
H           45.93       16.14       -11.07      
H           45.38       17.48       -10.02      
H           44.14757    16.48961    -10.95083   
H           43.54       8.84        -3.82       
H           43.91       9.86        -2.54       
H           45.19813    8.8207      -3.17401    
H           45.79       11.64       -9.94       
H           44.64       14.34       -3.59       
C           44.78       14.1        -4.65       
C           45.04       14.86       -6.89       
C           44.76       15.17       -5.54       
C           46.39       7.41        -10.15      
C           46.86       7.25        -8.86       
S           45.67       8.99        -10.39      
H           46.97       8.46        -7.1        
H           47.41       6.32        -8.46       
C           46.55       8.37        -8.05       
C           45.95       9.39        -8.7        
C           47.22       4.73        -12.94      
C           46.77       5.85        -13.52      
S           47.19       4.99        -11.2       
H           46.05       7.93        -12.92      
H           46.64       5.91        -14.6       
C           46.42       6.94        -12.6       
C           46.62       6.57        -11.28      
C           48.28       1.63        -15.04      
C           48.07       1.16        -13.77      
S           47.98       3.33        -15.16      
H           47.5        1.99        -11.84      
H           48.14       0.13        -13.46      
C           47.69       2.23        -12.89      
C           47.57       3.43        -13.5       
C           50.93       -2.55       -19.32      
C           51.22       -1.35       -18.88      
C           49.72       -3.07       -18.85      
C           50.42       -0.63       -17.97      
C           49.2        -1.17       -17.49      
C           50.84       0.57        -17.4       
C           48.83       -2.42       -17.99      
C           47.5        -2.92       -17.7       
N           46.65       -2.19       -16.83      
C           47.04       -0.97       -16.25      
C           52.21       1.17        -17.67      
N           52.94       0.56        -18.62      
C           52.5        -0.68       -19.26      
O           52.65       2.2         -17.16      
O           53.18       -1.19       -20.16      
O           47.11       -4.0        -18.11      
O           46.3        -0.33       -15.57      
C           45.37       -2.8        -16.39      
C           53.85       1.29        -19.35      
H           45.13       -2.39       -15.42      
H           45.42       -3.87       -16.2       
H           44.58788    -2.67078    -17.13812   
H           54.68       0.7         -19.55      
H           54.33       2.08        -18.75      
H           53.54108    1.71387     -20.30551   
H           49.38       -3.97       -19.32      
H           50.47       2.08        -16.03      
C           50.08       1.19        -16.53      
C           48.39       -0.41       -16.57      
C           48.81       0.8         -16.13      
C           53.29       -4.75       -21.7       
C           52.15       -4.5        -22.42      
S           53.12       -4.17       -20.09      
H           50.15       -3.46       -21.97      
H           52.04       -4.77       -23.46      
C           51.13       -3.79       -21.63      
C           51.59       -3.43       -20.32      
C           56.58       -6.91       -21.81      
C           56.05       -7.05       -23.03      
S           55.6        -5.92       -20.73      
H           54.3        -6.33       -24.09      
H           56.49       -7.76       -23.77      
C           54.87       -6.22       -23.15      
C           54.49       -5.57       -21.98      
C           59.94       -8.05       -20.3       
C           59.57       -8.99       -21.27      
S           58.67       -6.78       -20.18      
H           57.82       -9.33       -22.67      
H           60.26       -9.79       -21.6       
C           58.24       -8.79       -21.83      
C           57.74       -7.57       -21.37      
C           66.27       -7.15       -18.73      
C           65.48       -6.81       -19.9       
C           65.6        -7.81       -17.69      
C           64.17       -7.33       -19.99      
C           63.54       -8.01       -18.94      
C           63.29       -6.92       -21.05      
C           64.3        -8.28       -17.8       
C           63.72       -8.87       -16.58      
N           62.41       -9.33       -16.71      
C           61.59       -9.13       -17.84      
C           63.76       -6.21       -22.22      
N           65.13       -5.92       -22.22      
C           66.04       -6.19       -21.15      
O           63.06       -6.05       -23.2       
O           67.24       -5.96       -21.25      
O           64.38       -9.1        -15.58      
O           60.49       -9.57       -17.82      
C           61.93       -10.28      -15.78      
C           65.62       -4.95       -23.19      
H           62.68       -11.06      -15.67      
H           61.01       -10.8       -16.18      
H           61.65862    -9.89033    -14.79887   
H           66.38       -4.37       -22.67      
H           64.83       -4.27       -23.46      
H           66.12108    -5.37453    -24.05994   
H           66.14       -7.82       -16.73      
H           61.38       -7.06       -21.96      
C           61.99       -7.38       -21.1       
C           62.13       -8.39       -18.97      
C           61.36       -8.03       -20.04      
C           69.18       -4.86       -17.85      
C           69.6        -6.18       -17.67      
S           67.58       -4.78       -18.5       
H           68.69       -8.15       -17.78      
H           70.64       -6.35       -17.56      
C           68.59       -7.11       -17.85      
C           67.53       -6.5        -18.39      
C           71.56       -1.81       -17.54      
C           70.34       -1.35       -17.87      
S           71.67       -3.55       -17.57      
H           68.36       -2.25       -18.48      
H           70.06       -0.3        -18.02      
C           69.37       -2.37       -18.07      
C           69.93       -3.6        -17.85      
C           74.51       0.73        -17.62      
C           74.94       -0.45       -17.09      
S           72.95       0.51        -18.09      
H           74.05       -2.44       -16.46      
H           75.89       -0.52       -16.56      
C           73.94       -1.48       -16.95      
C           72.78       -1.06       -17.43      
C           78.51       5.94        -18.86      
C           78.63       4.56        -19.12      
C           77.35       6.32        -18.28      
C           77.63       3.65        -18.67      
C           76.44       4.09        -18.11      
C           77.78       2.24        -18.81      
C           76.34       5.47        -17.96      
C           75.06       6.17        -17.49      
N           74.02       5.33        -17.18      
C           74.16       3.91        -17.23      
C           78.96       1.68        -19.53      
N           79.89       2.6         -19.99      
C           79.84       4.0         -19.81      
O           79.1        0.48        -19.53      
O           80.76       4.53        -20.33      
O           74.97       7.4         -17.43      
O           73.13       3.39        -16.89      
C           73.08       5.88        -16.16      
C           80.84       2.14        -21.02      
H           73.41       6.84        -15.77      
H           73.02       5.15        -15.41      
H           72.13538    6.09072     -16.66138   
H           80.65       2.65        -21.94      
H           80.54       1.17        -21.4       
H           81.86893    2.04775     -20.67229   
H           77.24       7.38        -18.11      
H           76.85       0.41        -18.73      
C           76.73       1.46        -18.54      
C           75.39       3.22        -17.73      
C           75.48       1.85        -17.86      
C           80.74       9.01        -20.19      
C           80.84       9.0         -18.84      
S           79.84       7.6         -20.74      
H           80.07       7.7         -17.19      
H           81.48       9.65        -18.17      
C           80.08       7.92        -18.26      
C           79.44       7.1         -19.14      
C           83.57       10.96       -21.81      
C           82.43       11.53       -22.24      
S           83.15       9.59        -20.87      
H           80.17       11.25       -22.05      
H           82.44       12.47       -22.87      
C           81.19       10.9        -21.84      
C           81.47       9.88        -21.0       
C           86.98       12.69       -22.56      
C           87.23       11.36       -22.25      
S           85.27       12.99       -22.53      
H           86.08       9.56        -21.66      
H           88.23       10.9        -22.27      
C           86.11       10.61       -21.87      
C           84.96       11.36       -22.0       
C           92.12       16.73       -22.67      
C           91.04       16.66       -21.87      
C           92.25       15.85       -23.77      
C           90.01       15.72       -22.18      
C           90.23       14.75       -23.21      
C           88.81       15.56       -21.41      
C           91.42       14.82       -23.9       
C           91.81       13.74       -24.86      
N           90.89       12.7        -25.03      
C           89.61       12.72       -24.52      
C           88.57       16.53       -20.3       
N           89.57       17.49       -19.96      
C           90.79       17.6        -20.7       
O           87.56       16.36       -19.65      
O           91.55       18.55       -20.35      
O           92.9        13.76       -25.45      
O           88.72       11.94       -25.04      
C           91.21       11.69       -26.04      
C           89.17       18.54       -19.09      
H           91.38       12.12       -27.06      
H           90.4        10.97       -26.21      
H           92.07291    11.07465    -25.78537   
H           89.98       18.69       -18.44      
H           88.34       18.2        -18.53      
H           88.84105    19.47086    -19.55193   
H           93.19       15.79       -24.36      
H           86.99       14.55       -21.16      
C           87.93       14.56       -21.71      
C           89.26       13.71       -23.45      
C           88.06       13.65       -22.71      
C           94.61       19.77       -22.7       
C           95.04       18.84       -21.85      
S           93.18       19.2        -23.51      
H           94.43       16.93       -21.02      
H           95.95       18.94       -21.24      
C           94.22       17.72       -21.69      
C           93.18       17.75       -22.56      
C           96.94       22.7        -23.47      
C           95.83       22.92       -24.23      
S           96.78       21.35       -22.44      
H           93.97       21.95       -24.65      
H           95.8        23.83       -24.88      
C           94.87       21.94       -24.11      
C           95.25       21.0        -23.16      
C           99.91       25.26       -23.91      
C           99.86       24.78       -22.59      
S           98.64       24.41       -24.75      
H           98.82       23.17       -21.39      
H           100.46      25.28       -21.83      
C           98.88       23.73       -22.3       
C           98.1        23.51       -23.36      
C           104.04      30.12       -25.47      
C           102.85      29.6        -26.05      
C           104.59      29.35       -24.5       
C           102.18      28.47       -25.53      
C           102.84      27.71       -24.48      
C           100.94      27.95       -25.99      
C           104.12      28.14       -24.1       
C           104.85      27.5        -22.95      
N           104.15      26.42       -22.37      
C           102.96      25.85       -22.85      
C           100.24      28.65       -27.01      
N           100.92      29.75       -27.59      
C           102.09      30.41       -27.07      
O           99.18       28.21       -27.45      
O           102.42      31.46       -27.42      
O           105.96      27.88       -22.6       
O           102.68      24.8        -22.28      
C           104.74      25.83       -21.23      
C           100.39      30.36       -28.87      
H           105.83      25.91       -21.39      
H           104.5       24.75       -21.17      
H           104.42432   26.34912    -20.32504   
H           100.45      31.44       -28.95      
H           99.37       30.11       -28.87      
H           100.81947   29.86819    -29.7428    
H           105.5       29.72       -24.05      
H           99.4        26.54       -25.92      
C           100.36      26.87       -25.44      
C           102.22      26.54       -23.95      
C           100.95      26.15       -24.45      
C           105.93      33.48       -26.13      
C           106.09      32.64       -27.24      
S           104.78      32.79       -24.97      
H           105.37      30.54       -27.62      
H           106.77      32.86       -28.03      
C           105.47      31.35       -26.96      
C           104.81      31.31       -25.83      
C           107.27      37.1        -26.57      
C           106.8       36.99       -25.31      
S           107.14      35.61       -27.38      
H           105.72      35.62       -24.07      
H           106.88      37.8        -24.6       
C           106.21      35.77       -25.03      
C           106.31      34.84       -26.05      
C           108.53      39.7        -29.23      
C           108.72      40.27       -28.04      
S           108.04      38.03       -29.06      
H           108.44      39.73       -25.88      
H           109.03      41.27       -27.9       
C           108.35      39.42       -26.97      
C           107.84      38.23       -27.34      
C           109.39      43.94       -34.1       
C           110.27      43.43       -33.17      
C           108.04      43.48       -34.01      
C           109.8       42.47       -32.24      
C           108.47      41.92       -32.22      
C           110.65      41.85       -31.28      
C           107.6       42.51       -33.16      
C           106.18      42.14       -33.34      
N           105.68      41.25       -32.43      
C           106.52      40.66       -31.45      
C           112.08      42.19       -31.16      
N           112.45      43.22       -32.02      
C           111.67      43.9        -32.96      
O           112.91      41.68       -30.38      
O           112.19      44.9        -33.45      
O           105.52      42.62       -34.24      
O           105.98      39.9        -30.66      
C           104.44      40.53       -32.84      
C           113.98      43.32       -32.21      
H           104.37      39.55       -32.32      
H           104.46      40.43       -33.85      
H           103.57109   41.11862    -32.54569   
H           114.22      43.45       -33.25      
H           114.59      42.35       -32.12      
H           114.41822   44.18208    -31.70712   
H           107.32      43.8        -34.77      
H           110.9       40.42       -29.78      
C           110.16      40.89       -30.4       
C           107.98      40.96       -31.31      
C           108.82      40.46       -30.39      
C           109.6       46.08       -37.49      
C           110.83      45.63       -37.21      
S           108.41      45.47       -36.35      
H           111.73      44.27       -35.69      
H           111.67      45.94       -37.83      
C           110.83      44.72       -36.1       
C           109.64      44.63       -35.4       
C           108.77      49.0        -40.11      
C           107.62      48.35       -39.78      
S           110.14      48.23       -39.27      
H           107.01      46.73       -38.37      
H           106.6       48.64       -40.08      
C           107.79      47.37       -38.76      
C           109.09      47.01       -38.52      
C           108.33      52.17       -42.3       
C           109.71      51.83       -42.18      
S           107.49      50.89       -41.43      
H           111.08      50.53       -41.12      
H           110.49      52.46       -42.61      
C           110.04      50.68       -41.43      
C           108.93      50.07       -41.01      
C           106.49      57.54       -45.74      
C           106.28      56.17       -45.92      
C           107.34      57.86       -44.66      
C           106.86      55.14       -45.02      
C           107.72      55.58       -43.93      
C           106.48      53.83       -45.05      
C           107.92      56.95       -43.81      
C           108.77      57.53       -42.7       
N           109.28      56.56       -41.81      
C           109.17      55.18       -41.98      
C           105.53      53.28       -46.09      
N           105.01      54.23       -46.99      
C           105.28      55.63       -46.89      
O           105.35      52.09       -46.21      
O           104.48      56.35       -47.43      
O           108.89      58.69       -42.51      
O           109.58      54.49       -41.08      
C           109.36      57.08       -40.37      
C           104.3       53.71       -48.18      
H           109.32      56.32       -39.61      
H           108.54      57.72       -40.14      
H           110.31758   57.54846    -40.14266   
H           103.35      54.1        -48.19      
H           104.2       52.65       -48.17      
H           104.79111   54.035      -49.09722   
H           107.59      58.94       -44.5       
H           106.56      51.89       -44.15      
C           106.91      52.93       -44.07      
C           108.26      54.61       -43.03      
C           107.88      53.29       -43.11      
C           105.72      60.98       -47.62      
C           105.85      60.0        -48.59      
S           105.8       60.27       -46.03      
H           106.33      57.9        -48.64      
H           105.85      60.28       -49.64      
C           106.07      58.72       -48.04      
C           106.25      58.71       -46.67      
C           105.35      64.76       -48.54      
C           105.24      64.6        -47.21      
S           105.49      63.19       -49.29      
H           105.23      62.96       -45.78      
H           104.99      65.43       -46.7       
C           105.38      63.29       -46.78      
C           105.56      62.37       -47.78      
H           67.89       40.34       2.97        
H           105.03      65.77       -48.98      
