512

C           76.34       35.84       31.78       
C           76.65       35.82       30.48       
S           77.82       35.95       32.65       
H           78.4        36.06       29.15       
H           75.95       35.93       29.64       
C           78.02       36.03       30.14       
C           78.83       36.24       31.19       
C           70.42       35.7        34.72       
C           71.09       34.78       33.9        
C           71.06       36.96       34.91       
C           72.35       35.13       33.31       
C           72.91       36.38       33.52       
C           73.13       34.19       32.57       
C           72.27       37.26       34.41       
C           72.72       38.65       34.73       
N           73.92       38.98       34.08       
C           74.64       38.14       33.24       
C           72.61       32.87       32.24       
N           71.38       32.53       32.86       
C           70.59       33.4        33.62       
O           73.4        32.0        31.78       
O           69.65       32.89       34.31       
O           72.04       39.42       35.36       
O           75.68       38.6        32.78       
C           74.4        40.36       34.27       
C           70.8        31.21       32.64       
H           75.06       40.74       33.51       
H           73.47       40.98       34.19       
H           74.87323    40.52491    35.23797    
H           70.63       30.69       33.6        
H           71.65       30.6        32.23       
H           69.94227    31.19628    31.96754    
H           70.53       37.72       35.52       
H           75.0        33.73       31.53       
C           74.4        34.47       32.11       
C           74.16       36.74       32.98       
C           74.92       35.84       32.3        
C           66.63       35.69       35.65       
C           67.32       35.97       36.82       
S           67.7        35.25       34.37       
H           69.41       36.14       37.46       
H           66.93       36.08       37.81       
C           68.72       35.99       36.61       
C           69.09       35.63       35.29       
C           62.65       35.52       35.72       
C           63.1        35.21       34.49       
S           64.02       35.95       36.73       
H           65.07       34.64       33.53       
H           62.39       34.96       33.72       
C           64.52       35.09       34.41       
C           65.2        35.57       35.5        
C           58.78       35.56       36.4        
C           59.42       36.24       37.41       
S           59.91       35.23       35.15       
H           61.45       36.69       38.05       
H           58.92       36.91       38.12       
C           60.82       36.25       37.28       
C           61.26       35.65       36.13       
C           52.48       34.77       37.88       
C           53.44       33.94       37.36       
C           52.84       36.08       38.27       
C           54.72       34.44       37.11       
C           55.06       35.76       37.37       
C           55.75       33.58       36.66       
C           54.01       36.62       37.93       
C           54.22       38.1        38.2        
N           55.49       38.58       37.71       
C           56.41       37.74       37.07       
C           55.58       32.15       36.32       
N           54.25       31.67       36.48       
C           53.17       32.47       36.97       
O           56.48       31.48       35.86       
O           52.06       31.95       37.15       
O           53.3        38.79       38.66       
O           57.38       38.27       36.63       
C           55.69       39.97       37.73       
C           54.03       30.19       36.46       
H           54.75       40.51       37.53       
H           56.25       40.38       36.95       
H           56.04444    40.28969    38.70993    
H           53.39       29.85       37.31       
H           55.04       29.69       36.65       
H           53.5979     29.77306    35.55031    
H           51.99       36.75       38.66       
H           57.77       33.46       35.9        
C           57.0        34.14       36.35       
C           56.32       36.27       37.0        
C           57.31       35.45       36.47       
C           48.53       34.47       37.57       
C           48.79       34.76       38.85       
S           49.95       34.16       36.64       
H           50.55       35.04       40.01       
H           47.99       34.93       39.63       
C           50.17       34.79       39.06       
C           51.02       34.5        37.97       
C           45.01       33.88       35.95       
C           45.83       34.36       34.96       
S           45.94       33.63       37.4        
H           47.86       35.22       34.9        
H           45.68       34.34       33.82       
C           47.1        34.71       35.5        
C           47.35       34.44       36.83       
C           41.9        31.83       34.91       
C           42.01       31.83       36.27       
S           43.1        32.87       34.22       
H           43.04       32.94       37.88       
H           41.4        31.17       36.89       
C           42.95       32.77       36.79       
C           43.75       33.27       35.79       
C           38.35       27.9        30.97       
C           39.26       27.73       31.97       
C           37.86       29.24       30.79       
C           39.77       28.79       32.78       
C           39.34       30.08       32.6        
C           40.76       28.52       33.71       
C           38.29       30.29       31.61       
C           37.71       31.68       31.43       
N           38.26       32.72       32.22       
C           39.28       32.52       33.17       
C           41.28       27.09       33.91       
N           40.67       26.07       33.25       
C           39.72       26.32       32.26       
O           42.31       26.99       34.62       
O           39.21       25.28       31.71       
O           36.73       31.86       30.68       
O           39.71       33.51       33.62       
C           37.47       34.0        32.26       
C           40.83       24.66       33.73       
H           37.74       34.45       33.19       
H           36.38       33.84       32.39       
H           37.58308    34.5866     31.34829    
H           39.9        24.21       33.88       
H           41.25       24.53       34.7        
H           41.52283    24.07914    33.12115    
H           37.1        29.4        30.08       
H           42.31       29.26       34.95       
C           41.42       29.54       34.34       
C           39.87       31.16       33.38       
C           41.04       30.89       34.19       
C           37.79       25.55       27.86       
C           36.57       25.91       28.36       
S           39.06       26.07       28.95       
H           35.88       27.3        29.88       
H           35.64       25.65       27.93       
C           36.7        26.79       29.48       
C           38.0        26.99       29.94       
C           39.2        23.03       25.19       
C           37.98       23.56       24.75       
S           39.63       23.73       26.7        
H           36.34       24.81       25.57       
H           37.41       23.18       23.87       
C           37.36       24.45       25.7        
C           38.15       24.7        26.76       
C           41.55       20.98       23.01       
C           41.9        20.74       24.31       
S           40.06       21.88       23.0        
H           41.2        21.23       26.36       
H           42.81       20.2        24.62       
C           41.03       21.29       25.29       
C           40.0        21.96       24.71       
C           44.89       20.27       17.41       
C           45.29       20.81       18.67       
C           43.69       19.66       17.38       
C           44.38       20.8        19.75       
C           43.14       20.19       19.68       
C           44.76       21.21       21.08       
C           42.8        19.58       18.42       
C           41.59       18.77       18.13       
N           40.64       18.72       19.21       
C           40.92       19.32       20.45       
C           46.11       21.72       21.39       
N           47.04       21.65       20.36       
C           46.68       21.24       19.08       
O           46.39       22.13       22.45       
O           47.65       21.27       18.27       
O           41.4        18.27       16.98       
O           40.12       19.12       21.39       
C           39.33       18.2        19.06       
C           48.4        21.82       20.7        
H           39.02       18.72       18.21       
H           38.62       18.5        19.82       
H           39.33695    17.11644    18.94192    
H           49.03       21.02       20.38       
H           48.58       21.76       21.73       
H           48.80661    22.80326    20.46343    
H           43.43       19.11       16.53       
H           44.17       21.64       23.04       
C           43.82       21.2        22.07       
C           42.22       20.09       20.71       
C           42.49       20.71       21.94       
C           47.0        18.9        14.34       
C           47.42       20.18       14.59       
S           45.59       18.51       15.32       
H           46.89       21.88       15.89       
H           48.39       20.61       14.21       
C           46.68       20.85       15.66       
C           45.7        20.02       16.2        
C           49.21       15.79       13.16       
C           47.99       15.69       12.59       
S           49.36       17.39       13.81       
H           46.02       16.9        12.59       
H           47.6        14.82       12.14       
C           47.09       16.83       12.87       
C           47.7        17.84       13.61       
C           52.4        13.68       13.8        
C           51.71       13.17       12.72       
S           51.52       15.08       14.38       
H           49.87       13.54       11.57       
H           52.14       12.42       12.09       
C           50.52       13.87       12.4        
C           50.29       14.86       13.25       
C           58.6        12.24       15.34       
C           57.94       12.52       14.13       
C           57.82       12.17       16.51       
C           56.57       12.73       14.14       
C           55.77       12.64       15.34       
C           55.87       12.98       12.95       
C           56.5        12.44       16.55       
C           55.79       12.25       17.83       
N           54.4        12.34       17.75       
C           53.61       12.69       16.63       
C           56.46       13.06       11.58       
N           57.8        12.71       11.65       
C           58.6        12.44       12.82       
O           55.83       13.1        10.5        
O           59.72       12.18       12.73       
O           56.48       12.12       18.82       
O           52.4        12.67       16.74       
C           53.63       11.91       18.91       
C           58.47       12.75       10.36       
H           52.58       11.76       18.73       
H           53.72       12.66       19.68       
H           53.934      10.92731    19.27056    
H           59.54       13.01       10.49       
H           58.03       13.59       9.84        
H           58.42894    11.81239    9.80565     
H           58.35       11.97       17.37       
H           54.14       13.43       12.11       
C           54.54       13.14       13.05       
C           54.38       12.83       15.36       
C           53.71       13.14       14.15       
C           62.24       10.95       16.28       
C           62.36       12.24       15.87       
S           60.58       10.44       16.26       
H           61.05       13.65       14.98       
H           63.32       12.74       15.81       
C           61.11       12.7        15.4        
C           59.98       11.94       15.66       
C           65.21       9.01        17.89       
C           64.14       8.14        17.62       
S           64.73       10.51       17.34       
H           62.08       8.02        16.68       
H           64.13       7.05        17.95       
C           63.01       8.67        16.94       
C           63.16       10.0        16.75       
C           68.44       7.8         19.6        
C           68.71       9.09        19.22       
S           66.96       7.2         18.88       
H           67.56       10.77       18.35       
H           69.68       9.55        19.2        
C           67.55       9.73        18.66       
C           66.53       8.83        18.5        
C           73.46       3.83        21.35       
C           73.23       4.79        20.36       
C           72.39       3.52        22.14       
C           72.03       5.52        20.28       
C           70.98       5.19        21.1        
C           71.85       6.56        19.33       
C           71.21       4.21        22.09       
C           70.17       3.82        23.01       
N           68.95       4.52        22.97       
C           68.56       5.42        21.96       
C           72.82       6.81        18.2        
N           73.99       6.04        18.28       
C           74.24       5.15        19.3        
O           72.63       7.66        17.36       
O           75.27       4.5         19.31       
O           70.4        3.08        23.89       
O           67.39       5.75        21.83       
C           67.96       4.27        24.09       
C           74.69       5.82        17.05       
H           67.64       3.26        24.06       
H           67.15       5.04        24.11       
H           68.32426    4.5057      25.08993    
H           75.72       5.45        17.18       
H           74.65       6.71        16.56       
H           74.23599    5.01363     16.47402    
H           72.5        2.81        22.92       
H           70.55       7.91        18.45       
C           70.64       7.16        19.25       
C           69.72       5.87        21.03       
C           69.58       6.99        20.17       
C           77.04       2.52        22.44       
C           76.38       1.44        21.99       
S           76.04       3.94        22.35       
H           74.34       1.04        21.29       
H           76.82       0.42        21.91       
C           74.99       1.78        21.7        
C           74.69       3.09        21.75       
C           80.75       3.52        23.51       
C           80.55       2.11        23.57       
S           79.22       4.2         22.92       
H           79.03       0.63        23.18       
H           81.29       1.38        23.88       
C           79.31       1.64        23.16       
C           78.43       2.66        22.86       
C           83.76       5.88        24.19       
C           83.99       4.65        24.77       
S           82.22       5.85        23.25       
H           83.05       2.7         24.97       
H           84.75       4.56        25.43       
C           83.02       3.68        24.57       
C           81.96       4.19        23.79       
C           87.4        11.3        25.12       
C           86.09       11.11       24.76       
C           88.27       10.16       25.12       
C           85.67       9.77        24.6        
C           86.49       8.6         24.76       
C           84.32       9.59        24.28       
C           87.88       8.85        24.96       
C           88.85       7.82        25.07       
N           88.34       6.52        24.94       
C           87.05       6.17        24.62       
C           83.33       10.64       24.24       
N           83.77       11.91       24.37       
C           85.12       12.26       24.6        
O           82.13       10.4        24.01       
O           85.44       13.41       24.82       
O           89.99       8.08        25.41       
O           86.81       5.0         24.34       
C           89.36       5.44        24.78       
C           82.79       12.96       24.79       
H           89.07       4.42        24.78       
H           89.98       5.49        25.67       
H           89.90611    5.62904     23.85581    
H           83.24       13.69       25.42       
H           81.91       12.53       25.35       
H           82.31606    13.45548    23.94266    
H           89.3        10.34       25.21       
H           82.85       8.18        23.93       
C           83.92       8.23        24.08       
C           86.04       7.24        24.51       
C           84.7        7.05        24.18       
C           89.56       14.4        23.92       
C           89.97       14.01       25.14       
S           88.13       13.46       23.47       
H           89.67       12.49       26.59       
H           90.9        14.37       25.54       
C           89.28       12.94       25.67       
C           88.16       12.58       24.98       
C           91.22       17.38       22.03       
C           90.0        17.17       21.44       
S           91.46       16.41       23.49       
H           88.29       15.83       21.69       
H           89.59       17.72       20.61       
C           89.24       16.16       22.1        
C           89.93       15.59       23.18       
C           93.51       20.27       20.6        
C           94.06       19.73       21.71       
S           92.11       19.28       20.28       
H           93.59       18.27       23.44       
H           94.82       20.22       22.24       
C           93.37       18.71       22.4        
C           92.23       18.37       21.74       
C           97.26       24.78       17.58       
C           96.72       23.55       17.17       
C           96.88       25.21       18.83       
C           95.97       22.81       18.06       
C           95.56       23.32       19.36       
C           95.54       21.45       17.8        
C           95.94       24.67       19.71       
C           95.7        25.31       21.05       
N           94.9        24.55       21.95       
C           94.28       23.27       21.57       
C           95.93       20.74       16.51       
N           96.66       21.52       15.67       
C           97.07       22.94       15.82       
O           95.57       19.59       16.28       
O           97.84       23.47       15.01       
O           96.23       26.36       21.39       
O           93.53       22.64       22.38       
C           94.78       24.94       23.43       
C           97.13       20.83       14.45       
H           95.69       25.29       23.91       
H           94.41       24.07       23.98       
H           94.00533    25.67164    23.65953    
H           97.06       21.62       13.66       
H           96.3        20.1        14.22       
H           98.15303    20.45732    14.50115    
H           97.44       26.02       19.27       
H           94.34       19.87       18.31       
C           94.71       20.8        18.63       
C           94.73       22.58       20.23       
C           94.24       21.32       19.86       
C           100.39      26.78       16.2        
C           99.53       27.64       16.75       
S           99.78       25.12       16.29       
H           97.51       27.58       17.61       
H           99.81       28.7        16.77       
C           98.35       27.0        17.21       
C           98.31       25.67       17.02       
C           103.37      28.15       14.04       
C           103.73      26.95       14.51       
S           101.81      28.58       14.59       
H           102.99      25.41       15.88       
H           104.72      26.51       14.24       
C           102.78      26.36       15.36       
C           101.62      27.14       15.57       
C           105.0       31.44       12.49       
C           105.72      30.29       12.12       
S           103.65      30.84       13.46       
H           105.72      28.16       12.34       
H           106.7       30.24       11.58       
C           105.19      29.09       12.53       
C           104.15      29.16       13.34       
C           107.16      37.69       12.44       
C           107.7       36.51       13.04       
C           106.01      37.6        11.64       
C           107.02      35.27       12.78       
C           105.81      35.16       12.05       
C           107.54      34.05       13.25       
C           105.38      36.39       11.43       
C           104.2       36.43       10.6        
N           103.46      35.23       10.42       
C           103.84      34.04       11.04       
C           108.86      34.01       13.9        
N           109.47      35.25       14.03       
C           108.98      36.52       13.81       
O           109.43      33.03       14.2        
O           109.65      37.51       13.96       
O           103.78      37.52       10.24       
O           103.15      33.04       10.75       
C           102.57      35.17       9.27        
C           110.95      35.21       14.34       
H           102.33      34.14       8.94        
H           103.12      35.6        8.39        
H           101.65786   35.734      9.46496     
H           111.35      36.02       13.75       
H           111.41      34.22       14.06       
H           111.07688   35.36507    15.41143    
H           105.64      38.53       11.14       
H           107.29      32.01       13.21       
C           106.82      32.89       12.96       
C           105.08      33.95       11.89       
C           105.59      32.78       12.38       
C           108.34      41.5        12.3        
C           108.45      41.07       13.58       
S           107.65      40.28       11.31       
H           107.81      39.25       14.67       
H           108.79      41.71       14.36       
C           107.88      39.78       13.71       
C           107.49      39.14       12.63       
C           109.59      45.09       11.12       
C           108.69      44.61       10.25       
S           109.75      43.98       12.48       
H           107.5       42.79       9.98        
H           108.36      45.18       9.34        
C           108.16      43.33       10.59       
C           108.56      42.84       11.8        
C           111.26      48.45       10.33       
C           111.6       48.19       11.61       
S           110.49      47.15       9.54        
H           110.87      46.67       13.07       
H           112.11      48.87       12.27       
C           110.93      47.0        12.07       
C           110.39      46.28       11.06       
C           111.6       54.79       8.59        
C           112.54      53.8        8.67        
C           110.27      54.44       8.87        
C           112.16      52.45       8.94        
C           110.83      52.08       9.26        
C           113.09      51.43       9.05        
C           109.92      53.14       9.18        
C           108.44      52.99       9.37        
N           108.06      51.62       9.56        
C           108.99      50.57       9.89        
C           114.5       51.68       8.84        
N           114.85      52.92       8.34        
C           114.01      53.98       8.34        
O           115.37      50.78       9.07        
O           114.47      55.04       8.0         
O           107.7       53.94       9.14        
O           108.49      49.49       10.31       
C           106.69      51.36       9.97        
C           116.21      53.14       7.93        
H           106.36      52.36       10.17       
H           106.53      50.81       10.94       
H           106.11314   50.91458    9.15948     
H           116.09      53.55       6.95        
H           116.7       52.2        7.7         
H           116.76902   53.76436    8.62697     
H           109.51      55.15       8.79        
H           113.54      49.47       9.66        
C           112.71      50.18       9.51        
C           110.47      50.77       9.68        
C           111.42      49.79       9.74        
C           111.15      58.64       7.64        
C           112.03      58.15       6.8         
S           110.79      57.58       8.93        
H           112.91      56.2        6.35        
H           112.39      58.58       5.82        
C           112.38      56.8        7.08        
C           111.73      56.28       8.21        
C           109.28      61.75       6.23        
C           108.97      61.64       7.56        
S           110.43      60.53       5.79        
H           109.52      60.27       9.36        
H           108.13      62.23       8.02        
C           109.61      60.5        8.28        
C           110.36      59.81       7.38        
H           79.63       36.94       31.08       
H           108.94      62.55       5.61        
