512

C           62.32       43.62       28.74       
C           62.89       43.37       27.51       
S           63.47       43.48       30.03       
H           65.03       43.1        26.83       
H           62.41       43.34       26.57       
C           64.34       43.19       27.66       
C           64.81       43.17       28.94       
C           55.73       44.55       29.56       
C           56.53       43.6        28.9        
C           56.48       45.57       30.15       
C           57.99       43.67       28.89       
C           58.66       44.77       29.47       
C           58.82       42.72       28.26       
C           57.84       45.72       30.1        
C           58.47       46.92       30.72       
N           59.9        46.95       30.76       
C           60.79       45.98       30.2        
C           58.25       41.49       27.59       
N           56.83       41.49       27.54       
C           55.97       42.46       28.12       
O           59.0        40.64       27.05       
O           54.8        42.28       27.99       
O           57.69       47.76       31.24       
O           61.99       46.28       30.2        
C           60.48       48.26       31.0        
C           56.19       40.35       26.74       
H           61.36       48.46       30.46       
H           59.82       49.09       30.67       
H           60.60174    48.4462     32.06706    
H           55.34       40.04       27.4        
H           57.01       39.6        26.71       
H           55.86398    40.66185    25.74775    
H           55.9        46.21       30.78       
H           60.77       42.09       27.62       
C           60.22       42.91       28.18       
C           60.1        44.84       29.46       
C           60.89       43.91       28.81       
C           52.01       44.3        30.91       
C           52.62       43.06       30.87       
S           53.12       45.49       30.33       
H           54.69       42.25       30.45       
H           52.09       42.19       31.24       
C           54.03       43.1        30.55       
C           54.43       44.38       30.23       
C           48.31       44.67       32.16       
C           48.91       45.84       32.3        
S           49.44       43.51       31.53       
H           50.92       46.72       31.83       
H           48.39       46.63       32.75       
C           50.26       45.91       31.77       
C           50.72       44.74       31.35       
C           44.98       42.88       32.69       
C           44.82       44.04       33.36       
S           46.54       42.7        32.0        
H           46.1        45.86       33.8        
H           43.93       44.39       33.92       
C           45.97       44.92       33.22       
C           46.96       44.29       32.51       
C           40.83       37.78       31.86       
C           42.01       37.92       32.6        
C           40.34       38.88       31.17       
C           42.6        39.23       32.66       
C           42.09       40.34       31.92       
C           43.82       39.47       33.32       
C           40.92       40.1        31.16       
C           40.32       41.05       30.2        
N           40.96       42.33       30.35       
C           42.19       42.56       30.92       
C           44.47       38.4        34.11       
N           43.81       37.11       34.08       
C           42.67       36.83       33.38       
O           45.52       38.57       34.74       
O           42.28       35.67       33.46       
O           39.22       40.8        29.68       
O           42.61       43.68       30.85       
C           40.37       43.56       29.7        
C           44.3        36.15       35.08       
H           39.93       43.24       28.78       
H           41.06       44.3        29.36       
H           39.60784    43.95218    30.37336    
H           43.5        35.5        35.47       
H           44.76       36.74       35.92       
H           45.18544    35.65015    34.68726    
H           39.48       38.74       30.53       
H           45.36       40.77       33.84       
C           44.42       40.74       33.33       
C           42.76       41.58       31.82       
C           43.9        41.8        32.62       
C           39.17       34.26       31.53       
C           38.62       34.88       32.66       
S           40.03       35.41       30.52       
H           39.0        36.95       33.67       
H           38.0        34.42       33.42       
C           39.17       36.21       32.83       
C           39.95       36.59       31.83       
C           39.45       30.77       30.01       
C           39.0        30.55       31.32       
S           39.53       32.44       29.62       
H           38.5        31.79       33.03       
H           38.92       29.62       31.75       
C           38.76       31.81       32.02       
C           39.12       32.89       31.23       
C           41.26       27.79       28.44       
C           40.97       28.66       27.37       
S           40.69       28.36       29.95       
H           40.03       30.58       27.07       
H           41.25       28.5        26.3        
C           40.35       29.86       27.79       
C           40.05       29.78       29.14       
C           43.83       21.85       27.05       
C           44.34       22.95       27.8        
C           42.55       21.96       26.46       
C           43.47       24.07       27.92       
C           42.18       24.2        27.3        
C           43.88       25.21       28.74       
C           41.75       23.1        26.57       
C           40.47       23.15       25.92       
N           39.69       24.31       25.93       
C           40.05       25.46       26.7        
C           45.26       25.28       29.31       
N           46.04       24.12       29.07       
C           45.69       22.95       28.34       
O           45.7        26.26       29.87       
O           46.4        21.96       28.35       
O           40.17       22.29       25.17       
O           39.19       26.34       26.87       
C           38.62       24.46       24.92       
C           46.84       23.83       30.28       
H           39.06       24.16       23.97       
H           38.31       25.52       24.83       
H           37.72735    23.88117    25.15711    
H           46.59       22.79       30.57       
H           46.5        24.48       31.08       
H           47.88894    24.09224    30.14198    
H           42.12       21.13       25.86       
H           43.53       27.15       29.44       
C           43.11       26.34       28.86       
C           41.35       25.36       27.4        
C           41.8        26.42       28.22       
C           45.77       18.84       25.37       
C           44.76       18.39       26.16       
S           45.84       20.57       25.55       
H           43.27       19.26       27.55       
H           44.46       17.39       26.23       
C           44.04       19.43       26.86       
C           44.49       20.62       26.64       
C           48.56       17.57       23.02       
C           48.5        16.71       24.03       
S           47.37       18.79       23.12       
H           47.29       16.53       25.85       
H           49.05       15.84       24.08       
C           47.48       17.06       24.94       
C           46.79       18.19       24.64       
C           50.66       18.8        19.99       
C           51.23       17.55       20.35       
S           49.19       19.04       20.88       
H           51.11       16.2        22.15       
H           52.21       17.18       20.03       
C           50.61       16.91       21.5        
C           49.44       17.61       21.82       
C           53.61       22.23       15.19       
C           52.74       22.63       16.31       
C           53.82       20.83       14.94       
C           52.11       21.6        17.08       
C           52.36       20.21       16.79       
C           51.29       21.89       18.17       
C           53.26       19.83       15.74       
C           53.53       18.42       15.36       
N           52.74       17.48       16.06       
C           51.83       17.8        17.11       
C           51.0        23.24       18.58       
N           51.42       24.18       17.68       
C           52.3        24.01       16.55       
O           50.19       23.55       19.5        
O           52.66       25.02       15.89       
O           54.32       18.2        14.49       
O           51.2        16.83       17.59       
C           52.62       16.18       15.37       
C           50.5        25.32       17.45       
H           52.48       16.29       14.31       
H           51.77       15.66       15.68       
H           53.4799     15.54041    15.56898    
H           51.08       26.21       17.25       
H           49.9        25.4        18.28       
H           49.81524    25.11603    16.62683    
H           54.53       20.53       14.21       
H           50.41       21.24       19.78       
C           50.83       20.94       18.93       
C           51.74       19.21       17.62       
C           50.99       19.59       18.76       
C           56.05       24.11       12.95       
C           54.86       24.69       12.71       
S           56.08       22.81       14.07       
H           52.79       24.38       13.44       
H           54.77       25.55       12.08       
C           53.85       24.02       13.42       
C           54.33       23.02       14.21       
C           59.66       24.25       11.41       
C           59.01       25.26       10.8        
S           58.72       23.49       12.74       
H           56.79       25.92       11.05       
H           59.4        25.86       10.03       
C           57.64       25.36       11.44       
C           57.37       24.46       12.4        
C           63.07       22.34       11.44       
C           62.87       22.74       10.22       
S           61.67       22.75       12.45       
H           61.29       23.89       9.03        
H           63.58       22.58       9.36        
C           61.67       23.52       9.97        
C           60.89       23.54       11.15       
C           68.41       19.02       13.31       
C           67.51       18.8        12.27       
C           68.25       20.16       14.16       
C           66.45       19.73       12.15       
C           66.19       20.78       13.05       
C           65.5        19.54       11.14       
C           67.23       21.02       13.99       
C           67.19       22.15       15.01       
N           65.99       22.98       14.89       
C           65.08       22.79       13.86       
C           65.5        18.46       10.11       
N           66.53       17.53       10.31       
C           67.56       17.69       11.32       
O           64.63       18.35       9.24        
O           68.51       16.87       11.39       
O           67.99       22.19       16.0        
O           64.14       23.58       13.79       
C           65.38       23.52       16.15       
C           66.27       16.1        9.92        
H           65.49       22.82       16.97       
H           64.3        23.63       16.04       
H           65.82374    24.48883    16.37927    
H           67.19       15.7        9.49        
H           65.57       16.0        9.1         
H           65.84777    15.49481    10.72223    
H           69.04       20.42       14.85       
H           63.76       20.3        10.19       
C           64.51       20.47       10.96       
C           65.21       21.74       12.79       
C           64.3        21.62       11.78       
C           72.13       17.77       13.55       
C           71.42       17.3        14.67       
S           71.01       18.46       12.47       
H           69.24       17.53       15.54       
H           71.91       17.02       15.57       
C           70.03       17.67       14.7        
C           69.67       18.29       13.55       
C           76.05       17.92       13.39       
C           75.62       17.65       12.12       
S           74.69       18.06       14.47       
H           73.59       17.19       11.15       
H           76.37       17.5        11.34       
C           74.16       17.46       12.08       
C           73.54       17.76       13.23       
C           79.23       18.52       15.54       
C           79.28       19.36       14.46       
S           77.86       17.46       15.45       
H           78.1        19.79       12.63       
H           80.14       20.06       14.32       
C           78.21       19.22       13.55       
C           77.32       18.25       13.97       
C           83.66       19.36       20.33       
C           83.15       18.28       19.65       
C           82.97       20.53       20.1        
C           82.19       18.39       18.65       
C           81.57       19.65       18.33       
C           81.74       17.27       17.94       
C           81.95       20.77       19.18       
C           81.12       22.01       19.3        
N           80.07       22.11       18.3        
C           79.78       21.07       17.33       
C           82.33       15.93       18.16       
N           83.46       15.88       19.02       
C           83.89       16.97       19.76       
O           81.99       15.0        17.47       
O           85.03       16.95       20.25       
O           81.56       22.9        20.05       
O           78.81       21.24       16.69       
C           79.04       23.22       18.29       
C           84.2        14.6        19.36       
H           78.14       23.08       18.8        
H           78.76       23.46       17.28       
H           79.44968    24.15238    18.67849    
H           85.3        14.82       19.28       
H           83.88       13.89       18.65       
H           84.0268     14.2103     20.36311    
H           83.26       21.38       20.82       
H           80.36       16.59       16.42       
C           80.71       17.41       17.04       
C           80.5        19.76       17.35       
C           80.08       18.62       16.64       
C           86.39       19.94       23.11       
C           85.75       18.83       23.46       
S           85.73       20.59       21.66       
H           83.96       17.71       22.74       
H           85.99       18.16       24.21       
C           84.65       18.54       22.58       
C           84.51       19.42       21.56       
C           89.57       22.13       23.77       
C           89.32       21.42       24.91       
S           88.26       21.79       22.63       
H           87.99       19.91       25.64       
H           89.91       21.55       25.82       
C           88.27       20.51       24.8        
C           87.51       20.62       23.64       
C           92.41       24.24       22.12       
C           92.41       24.46       23.5        
S           91.21       23.01       21.8        
H           91.13       24.0        25.26       
H           93.13       25.19       23.88       
C           91.34       23.88       24.23       
C           90.56       23.12       23.43       
C           95.86       27.38       17.44       
C           96.23       26.72       18.64       
C           94.51       27.59       17.21       
C           95.23       26.19       19.44       
C           93.85       26.24       19.12       
C           95.55       25.51       20.63       
C           93.5        27.01       17.93       
C           92.1        27.23       17.47       
N           91.2        26.45       18.22       
C           91.42       25.84       19.43       
C           96.95       25.36       21.13       
N           97.9        25.84       20.26       
C           97.65       26.48       19.04       
O           97.18       24.84       22.21       
O           98.55       26.73       18.25       
O           91.86       27.87       16.4        
O           90.44       25.54       20.14       
C           89.89       26.28       17.63       
C           99.35       25.71       20.67       
H           89.39       27.22       17.46       
H           89.17       25.81       18.31       
H           89.93205    25.64229    16.74702    
H           99.95       25.1        20.07       
H           99.58       25.14       21.57       
H           99.87468    26.65734    20.79388    
H           94.2        28.15       16.34       
H           94.83       24.34       22.17       
C           94.53       25.02       21.4        
C           92.86       25.68       19.94       
C           93.17       25.09       21.18       
C           97.8        29.78       14.97       
C           97.21       28.74       14.3        
S           97.49       29.6        16.65       
H           95.93       26.91       14.67       
H           97.03       28.72       13.19       
C           96.57       27.73       15.09       
C           96.67       28.04       16.42       
C           99.57       33.17       14.12       
C           98.99       32.73       12.94       
S           99.3        31.95       15.35       
H           97.54       31.1        12.36       
H           99.16       33.19       11.96       
C           98.15       31.58       13.12       
C           98.3        30.99       14.38       
C           100.86      36.64       15.33       
C           101.45      36.35       14.12       
S           99.72       35.42       15.69       
H           101.39      34.85       12.57       
H           101.99      37.05       13.53       
C           101.04      35.11       13.58       
C           100.26      34.4        14.34       
C           101.56      42.36       18.72       
C           100.99      42.03       17.43       
C           102.01      41.22       19.45       
C           100.99      40.72       16.93       
C           101.46      39.61       17.72       
C           100.5       40.41       15.63       
C           102.03      39.91       18.98       
C           102.61      38.91       19.89       
N           102.64      37.56       19.46       
C           102.1       37.22       18.2        
C           99.94       41.4        14.74       
N           99.85       42.74       15.33       
C           100.34      43.12       16.62       
O           99.33       41.09       13.68       
O           100.27      44.23       17.04       
O           103.21      39.23       20.9        
O           101.99      36.07       17.98       
C           103.51      36.57       20.18       
C           99.76       43.83       14.39       
H           104.41      37.02       20.54       
H           103.8       35.82       19.5        
H           102.98946   36.06372    20.9929     
H           99.3        44.66       14.89       
H           99.14       43.43       13.58       
H           100.71708   44.13516    13.96694    
H           102.31      41.38       20.48       
H           100.22      38.89       14.18       
C           100.64      39.07       15.22       
C           101.46      38.27       17.28       
C           100.92      37.96       16.03       
C           102.12      45.81       20.63       
C           100.85      45.44       20.7        
S           103.04      44.56       19.9        
H           99.54       43.81       19.94       
H           100.14      46.08       21.18       
C           100.57      44.22       20.08       
C           101.6       43.64       19.43       
C           104.29      49.14       21.04       
C           103.18      49.23       21.85       
S           104.32      47.5        20.29       
H           101.51      48.0        22.47       
H           102.9       50.07       22.44       
C           102.4       48.0        21.88       
C           102.82      47.06       21.02       
C           107.01      51.71       19.92       
C           105.93      52.42       20.34       
S           106.63      50.03       20.03       
H           104.12      51.99       21.43       
H           105.96      53.51       20.4        
C           104.93      51.62       20.88       
C           105.09      50.27       20.68       
C           112.74      53.93       17.51       
C           111.42      54.2        17.17       
C           112.95      53.02       18.54       
C           110.37      53.64       17.93       
C           110.66      52.78       19.05       
C           108.98      53.84       17.61       
C           111.98      52.49       19.35       
C           112.39      51.42       20.35       
N           111.33      50.83       21.09       
C           109.98      51.08       20.81       
C           108.54      54.71       16.6        
N           109.58      55.27       15.87       
C           111.04      55.1        16.09       
O           107.37      54.89       16.44       
O           111.83      55.7        15.36       
O           113.5       50.93       20.4        
O           109.13      50.62       21.6        
C           111.68      49.51       21.73       
C           109.14      56.2        14.84       
H           112.12      48.9        20.92       
H           110.79      49.07       22.07       
H           112.40506   49.5174     22.54384    
H           109.82      57.06       14.77       
H           108.11      56.58       15.08       
H           109.25109   55.79729    13.83323    
H           113.95      52.73       18.81       
H           106.94      53.49       18.2        
C           107.98      53.28       18.4        
C           109.65      52.14       19.79       
C           108.27      52.4        19.49       
C           116.39      54.28       16.09       
C           115.9       55.55       16.11       
S           115.19      53.14       16.61       
H           114.02      56.57       16.68       
H           116.38      56.41       15.58       
C           114.53      55.65       16.57       
C           114.06      54.39       16.9        
C           120.01      53.37       14.81       
C           119.3       52.23       15.0        
S           119.01      54.73       15.05       
H           117.36      51.69       15.91       
H           119.62      51.2        14.78       
C           118.0       52.49       15.59       
C           117.71      53.82       15.75       
C           123.58      53.27       13.3        
C           123.23      54.56       13.39       
S           122.38      52.24       14.03       
H           121.39      55.72       13.93       
H           123.89      55.4        13.14       
C           121.94      54.78       13.96       
C           121.32      53.58       14.26       
C           129.54      51.37       11.16       
C           128.26      51.31       10.6        
C           129.66      51.86       12.53       
C           127.16      51.84       11.33       
C           127.27      52.29       12.67       
C           125.88      51.8        10.72       
C           128.58      52.33       13.23       
C           128.85      52.94       14.57       
N           127.7       53.46       15.24       
C           126.4       53.38       14.75       
C           125.68      51.33       9.32        
N           126.78      50.89       8.61        
C           128.04      50.84       9.16        
O           124.57      51.31       8.75        
O           128.95      50.42       8.47        
O           129.97      52.89       14.99       
O           125.5       53.99       15.44       
C           127.99      53.96       16.61       
C           126.6       50.37       7.29        
H           128.65      53.3        17.15       
H           127.08      53.96       17.23       
H           128.363     54.9823     16.67217    
H           127.45      50.62       6.61        
H           125.74      50.92       6.84        
H           126.40956   49.2979     7.24063     
H           130.59      52.05       12.92       
H           123.71      52.22       11.04       
C           124.74      52.3        11.44       
C           126.14      52.87       13.35       
C           124.89      52.83       12.76       
C           133.19      51.46       9.58        
C           132.93      50.16       9.83        
S           131.86      52.51       9.96        
H           131.09      49.08       10.62       
H           133.62      49.32       9.75        
C           131.55      50.03       10.35       
C           130.86      51.2        10.49       
C           136.14      53.47       7.93        
C           136.58      52.24       8.34        
S           134.45      53.55       8.45        
H           135.84      50.36       9.34        
H           137.61      51.9        8.14        
C           135.64      51.39       8.97        
C           134.45      51.99       9.13        
H           65.59       42.45       29.19       
H           136.51      54.08       7.11        
