512

C           71.37       39.75       36.3        
C           70.88       38.47       36.14       
S           73.0        39.84       35.68       
H           71.7        36.57       35.34       
H           69.97       38.06       36.5        
C           71.84       37.59       35.53       
C           73.14       38.09       35.41       
C           67.39       44.55       38.49       
C           68.23       44.42       37.39       
C           67.33       43.47       39.39       
C           69.0        43.22       37.22       
C           68.99       42.17       38.11       
C           69.79       43.06       36.11       
C           68.08       42.3        39.22       
C           67.91       41.21       40.19       
N           68.63       40.03       39.86       
C           69.59       39.86       38.8        
C           70.17       44.12       35.16       
N           69.33       45.24       35.26       
C           68.39       45.43       36.29       
O           71.09       43.95       34.38       
O           67.77       46.53       36.22       
O           67.07       41.22       41.04       
O           70.27       38.9        38.83       
C           68.59       38.95       40.82       
C           69.61       46.43       34.43       
H           69.52       38.42       40.82       
H           68.46       39.47       41.77       
H           67.73566    38.29501    40.64913    
H           68.73       46.77       33.97       
H           70.32       46.11       33.63       
H           70.06539    47.21789    35.02996    
H           66.75       43.5        40.33       
H           71.23       41.87       35.08       
C           70.57       41.93       35.9        
C           69.79       41.01       37.88       
C           70.59       40.86       36.77       
C           65.19       47.73       39.02       
C           66.5        48.01       39.15       
S           65.07       46.05       38.57       
H           68.41       47.01       39.23       
H           66.74       48.94       39.26       
C           67.36       46.94       39.2        
C           66.74       45.77       38.88       
C           61.84       49.51       38.91       
C           62.83       50.42       39.03       
S           62.55       48.02       38.49       
H           65.03       50.45       39.42       
H           62.65       51.5        39.08       
C           64.14       49.94       39.1        
C           64.1        48.61       38.97       
C           58.18       48.53       38.89       
C           58.21       49.85       38.44       
S           59.74       48.04       39.4        
H           59.71       51.4        38.0        
H           57.31       50.3        38.03       
C           59.5        50.46       38.47       
C           60.44       49.55       38.93       
C           53.28       44.07       38.3        
C           54.04       44.8        37.38       
C           53.45       44.31       39.65       
C           54.96       45.76       37.81       
C           55.28       45.92       39.19       
C           55.65       46.64       36.92       
C           54.54       45.11       40.09       
C           54.69       45.34       41.6        
N           55.59       46.33       42.0        
C           56.37       47.08       41.11       
C           55.44       46.53       35.44       
N           54.56       45.52       35.03       
C           53.86       44.66       35.89       
O           55.97       47.25       34.6        
O           53.07       43.87       35.41       
O           53.91       44.85       42.35       
O           57.19       47.84       41.56       
C           55.82       46.4        43.45       
C           54.38       45.24       33.58       
H           54.93       46.62       43.99       
H           56.62       47.13       43.73       
H           56.12955    45.45025    43.88618    
H           54.22       44.2        33.39       
H           55.24       45.54       33.02       
H           53.59167    45.83639    33.12071    
H           52.88       43.88       40.47       
H           57.04       48.23       36.66       
C           56.55       47.55       37.36       
C           56.19       46.98       39.6        
C           56.93       47.71       38.71       
C           50.04       41.92       37.66       
C           50.9        41.2        38.45       
S           50.61       43.51       37.29       
H           52.99       41.36       39.14       
H           50.71       40.22       38.86       
C           52.13       41.84       38.55       
C           52.1        43.18       38.1        
C           46.24       40.57       37.29       
C           46.37       41.74       36.55       
S           47.7        40.41       38.23       
H           47.97       43.22       35.94       
H           45.57       42.1        35.95       
C           47.73       42.31       36.47       
C           48.62       41.6        37.29       
C           43.51       37.96       36.42       
C           43.61       37.98       37.77       
S           44.7        38.97       35.74       
H           44.76       39.13       39.31       
H           43.12       37.31       38.44       
C           44.53       38.95       38.26       
C           45.16       39.62       37.27       
C           41.45       32.8        32.8        
C           42.08       32.87       34.01       
C           40.83       33.94       32.23       
C           42.24       34.17       34.6        
C           41.81       35.36       33.99       
C           42.97       34.34       35.78       
C           41.1        35.23       32.77       
C           40.74       36.39       31.95       
N           41.03       37.71       32.44       
C           41.79       37.89       33.63       
C           43.6        33.23       36.49       
N           43.51       32.0        35.83       
C           42.85       31.73       34.6        
O           44.26       33.4        37.54       
O           42.8        30.62       34.14       
O           40.13       36.22       30.95       
O           41.98       39.01       34.07       
C           41.32       38.68       31.31       
C           44.16       30.86       36.44       
H           42.01       38.21       30.66       
H           41.82       39.59       31.66       
H           40.40652    38.99648    30.80651    
H           43.5        30.0        36.33       
H           44.1        31.06       37.49       
H           45.06402    30.53922    35.92237    
H           40.24       33.92       31.32       
H           43.95       35.56       37.17       
C           43.22       35.59       36.39       
C           42.19       36.69       34.5        
C           42.84       36.81       35.76       
C           41.41       29.85       30.08       
C           40.53       29.48       30.98       
S           42.18       31.38       30.4        
H           39.76       30.28       32.88       
H           39.98       28.56       30.97       
C           40.47       30.45       32.04       
C           41.31       31.58       31.89       
C           43.45       27.44       27.92       
C           42.18       27.0        27.95       
S           43.56       28.98       28.69       
H           40.35       27.5        28.92       
H           41.86       26.12       27.47       
C           41.29       27.88       28.56       
C           41.88       29.03       29.06       
C           46.1        25.07       26.48       
C           46.66       26.32       26.54       
S           44.5        25.18       27.01       
H           46.11       28.34       27.14       
H           47.75       26.55       26.29       
C           45.82       27.32       27.0        
C           44.55       26.83       27.3        
C           49.65       20.0        24.31       
C           49.81       20.87       25.35       
C           48.59       20.19       23.45       
C           48.88       21.82       25.59       
C           47.71       21.98       24.77       
C           48.98       22.66       26.74       
C           47.57       21.09       23.7        
C           46.36       21.04       22.86       
N           45.49       22.14       23.02       
C           45.7        23.09       24.01       
C           50.07       22.65       27.67       
N           51.02       21.66       27.38       
C           50.97       20.72       26.27       
O           50.11       23.34       28.67       
O           51.83       19.83       26.23       
O           46.23       20.18       21.93       
O           45.03       24.09       23.84       
C           44.46       22.32       22.0        
C           52.01       21.25       28.36       
H           44.81       22.08       20.98       
H           43.97       23.36       22.06       
H           43.61502    21.69168    22.28166    
H           52.12       20.17       28.47       
H           51.6        21.53       29.39       
H           52.96798    21.74329    28.19557    
H           48.46       19.53       22.59       
H           48.2        24.37       27.75       
C           48.03       23.7        26.9        
C           46.77       22.99       25.03       
C           46.92       23.92       26.03       
C           51.49       16.68       23.23       
C           52.28       17.73       22.97       
S           49.97       17.21       23.79       
H           52.25       19.92       23.25       
H           53.31       17.48       22.64       
C           51.72       19.0        23.34       
C           50.48       18.89       23.81       
C           52.97       13.12       22.78       
C           51.64       13.02       22.82       
S           53.45       14.79       22.75       
H           49.87       14.26       23.31       
H           51.13       12.05       22.71       
C           50.99       14.25       23.18       
C           51.84       15.31       23.1        
C           56.27       11.01       22.31       
C           55.16       10.2        22.28       
S           55.64       12.61       22.71       
H           52.94       10.31       22.31       
H           55.28       9.1         22.18       
C           53.89       10.82       22.34       
C           54.0        12.18       22.46       
C           62.65       9.21        22.36       
C           61.48       8.66        22.97       
C           62.55       10.47       21.8        
C           60.27       9.36        22.82       
C           60.13       10.57       22.1        
C           59.08       8.77        23.38       
C           61.35       11.12       21.59       
C           61.48       12.44       20.85       
N           60.23       13.09       20.78       
C           58.99       12.61       21.31       
C           59.07       7.54        24.25       
N           60.31       6.86        24.3        
C           61.53       7.35        23.72       
O           57.99       7.08        24.56       
O           62.54       6.7         23.88       
O           62.49       12.94       20.42       
O           58.0        13.22       21.08       
C           60.16       14.05       19.67       
C           60.55       5.82        25.37       
H           59.2        14.3        19.39       
H           60.56       13.64       18.83       
H           60.62694    15.0051     19.91054    
H           61.52       5.37        25.3        
H           59.84       4.97        25.27       
H           60.43747    6.20684     26.38281    
H           63.4        11.0        21.46       
H           57.04       8.85        23.6        
C           57.88       9.4         23.16       
C           58.9        11.23       21.94       
C           57.72       10.58       22.39       
C           66.47       8.07        22.32       
C           66.07       8.17        23.59       
S           65.18       8.46        21.17       
H           64.26       8.62        24.74       
H           66.82       8.01        24.39       
C           64.73       8.59        23.72       
C           64.07       8.78        22.52       
C           70.43       8.04        22.07       
C           69.95       7.81        20.84       
S           69.09       8.14        23.17       
H           67.98       7.91        19.79       
H           70.67       7.91        20.05       
C           68.53       7.86        20.72       
C           67.86       7.85        21.94       
C           73.74       7.64        23.79       
C           74.06       8.13        22.55       
S           72.05       7.49        24.07       
H           72.87       8.83        20.75       
H           75.09       8.34        22.27       
C           72.93       8.38        21.77       
C           71.81       8.13        22.51       
C           78.35       5.25        27.94       
C           77.53       4.75        26.84       
C           78.19       6.66        28.16       
C           76.59       5.54        26.15       
C           76.47       6.98        26.43       
C           75.88       5.0         25.09       
C           77.35       7.48        27.43       
C           77.34       8.94        27.76       
N           76.43       9.71        27.01       
C           75.54       9.2         26.09       
C           75.88       3.58        24.69       
N           76.73       2.75        25.41       
C           77.51       3.26        26.47       
O           75.36       3.24        23.64       
O           78.23       2.48        27.03       
O           78.1        9.3         28.62       
O           74.91       10.05       25.49       
C           75.81       10.76       27.83       
C           76.59       1.26        25.36       
H           75.9        10.6        28.93       
H           74.75       10.81       27.65       
H           76.33842    11.70259    27.68718    
H           77.61       0.8         25.39       
H           76.11       1.08        24.38       
H           75.92062    0.87247     26.12802    
H           78.78       7.14        28.91       
H           74.31       5.44        23.71       
C           74.94       5.83        24.48       
C           75.54       7.79        25.71       
C           74.82       7.2         24.71       
C           81.11       3.97        30.44       
C           79.96       3.29        30.77       
S           80.85       5.1         29.13       
H           77.83       3.41        30.04       
H           79.81       2.73        31.62       
C           78.85       3.74        29.9        
C           79.24       4.62        28.93       
C           84.69       4.43        31.8        
C           84.32       3.21        32.27       
S           83.45       5.27        30.89       
H           82.39       2.11        32.23       
H           84.99       2.54        32.79       
C           82.91       3.04        31.92       
C           82.4        3.94        31.02       
C           87.89       6.84        32.2        
C           88.24       5.52        32.54       
S           86.23       6.81        31.83       
H           87.42       3.49        32.64       
H           89.25       5.28        32.85       
C           87.22       4.56        32.43       
C           85.99       5.11        32.08       
C           92.57       11.51       32.58       
C           91.93       10.72       33.56       
C           92.16       11.37       31.31       
C           90.87       9.79        33.18       
C           90.42       9.74        31.82       
C           90.28       8.87        34.11       
C           91.08       10.56       30.91       
C           90.77       10.57       29.46       
N           89.82       9.61        29.03       
C           89.03       8.82        29.92       
C           90.74       8.71        35.45       
N           91.62       9.79        35.87       
C           92.24       10.69       34.99       
O           90.3        7.8         36.18       
O           93.06       11.46       35.55       
O           91.41       11.35       28.71       
O           88.13       8.16        29.45       
C           89.24       9.75        27.69       
C           91.62       10.17       37.33       
H           89.2        10.87       27.56       
H           88.27       9.31        27.62       
H           89.87936    9.24713     26.96443    
H           92.6        10.61       37.59       
H           91.47       9.29        37.94       
H           90.8828     10.94892    37.52473    
H           92.64       11.89       30.5        
H           88.93       7.36        34.45       
C           89.33       8.0         33.7        
C           89.4        8.8         31.36       
C           88.89       7.92        32.38       
C           95.15       14.58       33.32       
C           95.64       13.8        32.33       
S           93.59       14.01       33.73       
H           95.04       11.92       31.36       
H           96.57       13.91       31.79       
C           94.78       12.7        32.08       
C           93.61       12.62       32.73       
C           96.24       17.69       35.5        
C           96.92       17.74       34.28       
S           95.08       16.44       35.43       
H           97.09       16.48       32.43       
H           97.67       18.44       33.98       
C           96.54       16.7        33.41       
C           95.66       15.8        33.9        
C           96.69       20.93       37.55       
C           95.69       20.21       38.27       
S           97.25       20.08       36.14       
H           94.67       18.34       38.0        
H           95.13       20.44       39.12       
C           95.45       19.01       37.62       
C           96.19       18.76       36.52       
C           98.91       27.08       38.81       
C           98.06       26.46       37.83       
C           99.34       26.25       39.83       
C           97.7        25.11       37.89       
C           98.27       24.28       38.92       
C           96.98       24.51       36.86       
C           99.14       24.89       39.86       
C           99.94       23.97       40.84       
N           99.48       22.67       40.97       
C           98.49       22.12       40.1        
C           96.35       25.25       35.78       
N           96.59       26.64       35.73       
C           97.37       27.25       36.74       
O           95.87       24.57       34.88       
O           97.24       28.5        36.76       
O           100.92      24.48       41.47       
O           98.05       20.98       40.24       
C           100.2       21.62       41.73       
C           96.44       27.39       34.47       
H           101.26      21.92       41.64       
H           100.03      20.66       41.41       
H           99.85537    21.64068    42.76388    
H           96.04       28.4        34.61       
H           95.66       26.88       33.93       
H           97.34235    27.40455    33.85873    
H           100.11      26.67       40.48       
H           96.05       22.7        36.14       
C           96.66       23.13       36.9        
C           97.96       22.82       38.87       
C           97.12       22.29       37.92       
C           100.89      30.5        38.75       
C           99.86       30.48       39.71       
S           100.74      29.02       37.84       
H           98.26       29.19       40.54       
H           99.64       31.37       40.38       
C           99.0        29.35       39.75       
C           99.46       28.43       38.87       
C           103.59      33.1        37.53       
C           102.59      33.77       38.06       
S           103.27      31.4        37.56       
H           100.73      33.4        39.12       
H           102.52      34.84       38.01       
C           101.54      32.93       38.51       
C           101.74      31.59       38.34       
C           106.26      33.95       35.06       
C           106.59      34.72       36.17       
S           104.8       33.05       35.31       
H           105.72      35.02       38.23       
H           107.39      35.39       36.41       
C           105.66      34.46       37.27       
C           104.79      33.51       36.94       
C           109.68      33.57       29.28       
C           109.0       32.6        30.09       
C           109.92      34.86       29.77       
C           108.35      33.05       31.28       
C           108.41      34.43       31.74       
C           107.61      32.18       32.1        
C           109.23      35.26       30.92       
C           109.56      36.65       31.27       
N           109.03      37.0        32.53       
C           108.19      36.23       33.43       
C           107.62      30.74       31.81       
N           108.35      30.27       30.68       
C           109.01      31.12       29.82       
O           106.98      29.91       32.49       
O           109.69      30.61       28.96       
O           110.29      37.31       30.59       
O           107.91      36.75       34.48       
C           109.1       38.48       32.77       
C           107.81      29.05       30.11       
H           108.49      38.77       33.54       
H           108.58      38.93       31.94       
H           110.0698    38.86226    33.08855    
H           107.6       29.21       29.05       
H           106.77      29.04       30.44       
H           108.50255   28.22165    30.25937    
H           110.51      35.58       29.18       
H           106.45      31.83       33.79       
C           106.99      32.7        33.22       
C           107.83      34.83       33.0        
C           107.01      33.98       33.77       
C           111.83      33.42       25.99       
C           112.42      32.64       26.94       
S           110.29      34.01       26.61       
H           112.06      32.01       29.06       
H           113.35      32.14       26.79       
C           111.7       32.59       28.14       
C           110.62      33.34       28.15       
C           112.65      33.74       22.16       
C           113.65      33.04       22.78       
S           111.51      34.27       23.31       
H           114.09      32.44       24.81       
H           114.46      32.58       22.17       
C           113.48      33.0        24.13       
C           112.37      33.57       24.62       
C           112.71      34.0        18.21       
C           111.83      34.93       18.65       
S           113.37      33.08       19.53       
H           110.96      35.45       20.66       
H           111.07      35.42       18.03       
C           111.71      34.9        20.11       
C           112.53      34.04       20.71       
C           113.29      33.05       11.66       
C           113.73      32.39       12.75       
C           112.76      34.3        11.92       
C           113.51      32.9        14.1        
C           112.92      34.19       14.31       
C           113.92      32.26       15.23       
C           112.63      34.89       13.19       
C           112.01      36.23       13.18       
N           111.93      36.77       14.47       
C           112.31      36.13       15.71       
C           114.52      30.87       15.13       
N           114.68      30.38       13.79       
C           114.36      31.03       12.62       
O           114.95      30.24       16.17       
O           114.64      30.53       11.5        
O           111.93      36.95       12.13       
O           112.4       36.83       16.73       
C           111.3       38.11       14.61       
C           115.27      29.11       13.75       
H           111.97      38.69       13.93       
H           111.4       38.5        15.6        
H           110.27526   38.21674    14.25419    
H           114.96      28.65       12.82       
H           114.77      28.52       14.51       
H           116.35646   29.15206    13.8271     
H           112.31      34.84       11.09       
H           114.0       32.0        17.27       
C           113.67      32.69       16.47       
C           112.78      34.75       15.63       
C           113.06      33.95       16.78       
C           112.03      31.77       8.09        
C           113.13      32.59       7.97        
S           111.72      31.59       9.76        
H           114.31      33.89       9.29        
H           113.52      32.79       7.0         
C           113.56      33.16       9.22        
C           113.02      32.58       10.3        
C           110.09      29.07       6.08        
C           110.54      30.0        5.16        
S           110.88      29.37       7.55        
H           111.51      32.02       5.25        
H           110.22      29.98       4.11        
C           111.25      31.1        5.75        
C           111.31      30.98       7.12        
H           74.12       37.57       35.46       
H           109.54      28.17       5.88        
