512

C           67.9        38.87       37.2        
C           68.12       38.98       35.84       
S           69.41       38.93       38.05       
H           69.77       38.67       34.45       
H           67.35       39.1        35.02       
C           69.45       38.79       35.5        
C           70.33       38.72       36.56       
C           61.72       39.19       39.55       
C           62.96       39.76       39.87       
C           61.7        38.37       38.44       
C           64.14       39.5        39.08       
C           64.09       38.65       37.98       
C           65.4        40.14       39.39       
C           62.81       38.11       37.61       
C           62.64       37.11       36.56       
N           63.84       36.78       35.87       
C           65.1        37.28       36.23       
C           65.59       41.11       40.48       
N           64.44       41.43       41.17       
C           63.2        40.81       40.91       
O           66.68       41.62       40.8        
O           62.21       41.05       41.6        
O           61.52       36.62       36.32       
O           66.11       36.63       35.76       
C           63.63       35.91       34.75       
C           64.52       42.26       42.43       
H           64.59       35.39       34.48       
H           62.82       35.17       34.95       
H           63.4262     36.47384    33.8397     
H           63.75       43.04       42.43       
H           65.45       42.79       42.47       
H           64.44857    41.65998    43.33718    
H           60.75       37.89       38.14       
H           67.45       40.28       38.93       
C           66.49       39.87       38.63       
C           65.27       38.33       37.31       
C           66.51       38.91       37.65       
C           58.06       40.08       41.13       
C           58.1        40.25       39.79       
S           59.62       39.64       41.64       
H           59.54       39.93       38.12       
H           57.2        40.61       39.24       
C           59.33       39.88       39.13       
C           60.35       39.61       40.04       
C           54.96       39.33       43.34       
C           55.8        40.18       44.01       
S           55.59       39.02       41.77       
H           57.68       41.2        43.62       
H           55.66       40.46       45.03       
C           56.9        40.62       43.26       
C           56.91       40.1        42.04       
C           51.51       37.37       44.01       
C           51.83       38.14       45.12       
S           52.85       37.57       42.89       
H           53.49       39.52       45.69       
H           51.28       38.26       46.07       
C           53.12       38.82       45.01       
C           53.8        38.67       43.85       
C           47.04       32.57       43.95       
C           48.17       32.88       44.79       
C           46.69       33.51       42.99       
C           48.81       34.12       44.63       
C           48.43       35.01       43.56       
C           49.99       34.43       45.39       
C           47.37       34.67       42.75       
C           46.98       35.43       41.54       
N           47.61       36.66       41.41       
C           48.69       37.04       42.19       
C           50.58       33.56       46.43       
N           49.97       32.28       46.43       
C           48.86       31.91       45.72       
O           51.48       33.9        47.18       
O           48.46       30.7        45.84       
O           46.19       34.98       40.76       
O           49.2        38.15       42.0        
C           47.42       37.39       40.18       
C           50.96       31.23       46.62       
H           47.67       36.68       39.34       
H           48.09       38.22       40.07       
H           46.36968    37.63672    40.02492    
H           50.47       30.31       47.0        
H           51.79       31.53       47.16       
H           51.42034    30.95667    45.67054    
H           45.92       33.24       42.25       
H           51.67       35.63       45.69       
C           50.75       35.53       45.1        
C           49.28       36.14       43.27       
C           50.4        36.42       44.08       
C           44.8        29.23       43.5        
C           44.74       29.64       44.79       
S           45.87       30.28       42.61       
H           45.63       31.25       46.06       
H           44.31       28.97       45.54       
C           45.5        30.88       45.02       
C           46.07       31.41       43.93       
C           43.63       26.36       41.17       
C           42.94       26.18       42.33       
S           44.74       27.67       41.29       
H           43.09       27.14       44.32       
H           42.28       25.34       42.53       
C           43.29       27.18       43.32       
C           44.23       28.06       42.84       
C           43.45       23.48       38.64       
C           44.35       24.42       38.12       
S           42.85       24.02       40.14       
H           45.01       26.55       38.63       
H           44.91       24.34       37.17       
C           44.44       25.63       38.9        
C           43.62       25.55       39.98       
C           42.28       17.76       35.6        
C           42.46       18.09       36.94       
C           42.05       18.8        34.69       
C           42.55       19.45       37.36       
C           42.52       20.51       36.36       
C           42.81       19.89       38.67       
C           42.17       20.14       34.99       
C           42.11       21.04       33.84       
N           42.35       22.44       34.15       
C           42.5        22.86       35.51       
C           42.77       18.98       39.84       
N           42.59       17.61       39.5        
C           42.48       17.17       38.16       
O           43.02       19.41       40.92       
O           42.32       15.9        38.03       
O           41.88       20.65       32.68       
O           42.61       24.03       35.77       
C           42.68       23.35       33.1        
C           42.54       16.68       40.64       
H           42.74       24.32       33.6        
H           41.75       23.49       32.39       
H           43.59186    23.18035    32.52744    
H           41.63       16.03       40.45       
H           42.36       17.14       41.6        
H           43.38921    16.00206    40.72563    
H           41.79       18.49       33.68       
H           43.22       21.46       39.95       
C           43.08       21.18       38.94       
C           42.75       21.85       36.63       
C           43.05       22.19       37.96       
C           42.73       14.34       33.71       
C           41.77       14.08       34.68       
S           43.19       16.03       33.69       
H           40.73       15.32       36.14       
H           41.1        13.26       34.87       
C           41.45       15.33       35.33       
C           42.09       16.47       34.94       
C           44.38       13.03       30.51       
C           43.45       12.07       30.85       
S           44.46       14.3        31.72       
H           42.15       11.56       32.5        
H           43.27       11.19       30.27       
C           42.85       12.32       32.1        
C           43.21       13.57       32.58       
C           46.36       12.73       27.18       
C           46.58       13.95       27.73       
S           45.45       11.81       28.31       
H           46.01       15.19       29.48       
H           47.14       14.75       27.23       
C           45.93       14.26       28.92       
C           45.2        13.17       29.36       
C           49.5        10.11       21.92       
C           49.95       10.96       23.01       
C           48.12       9.84        21.79       
C           48.99       11.39       23.98       
C           47.67       11.1        23.83       
C           49.35       12.12       25.17       
C           47.24       10.3        22.71       
C           45.87       9.94        22.54       
N           44.95       10.41       23.44       
C           45.28       11.23       24.52       
C           50.73       12.53       25.47       
N           51.63       12.21       24.46       
C           51.36       11.54       23.25       
O           51.05       13.13       26.49       
O           52.22       11.28       22.41       
O           45.52       9.24        21.57       
O           44.38       11.76       25.14       
C           43.54       10.27       22.94       
C           53.06       12.58       24.67       
H           43.4        10.55       21.92       
H           42.89       10.9        23.54       
H           43.15965    9.28108     23.19587    
H           53.7        11.8        24.19       
H           53.18       12.55       25.77       
H           53.34587    13.50909    24.17687    
H           47.7        9.19        21.02       
H           48.8        12.86       27.05       
C           48.4        12.38       26.13       
C           46.67       11.52       24.82       
C           47.04       12.27       25.98       
C           51.35       9.13        18.56       
C           52.21       8.86        19.59       
S           49.91       9.87        19.18       
H           52.05       8.84        21.81       
H           53.15       8.32        19.43       
C           51.58       9.05        20.87       
C           50.27       9.6         20.88       
C           52.33       8.54        14.76       
C           51.18       9.3         14.77       
S           52.83       8.18        16.36       
H           49.72       10.13       16.33       
H           50.58       9.66        13.92       
C           50.67       9.55        16.09       
C           51.49       9.02        17.09       
C           55.15       7.19        12.29       
C           54.2        7.9         11.57       
S           54.6        7.16        13.93       
H           52.36       8.92        11.91       
H           54.25       8.09        10.54       
C           53.08       8.32        12.34       
C           53.14       8.02        13.64       
C           60.97       4.8         10.7        
C           59.67       4.27        10.48       
C           61.16       6.07        11.25       
C           58.63       5.08        10.91       
C           58.87       6.38        11.5        
C           57.32       4.63        10.84       
C           60.16       6.88        11.61       
C           60.48       8.21        12.23       
N           59.39       8.93        12.65       
C           58.02       8.53        12.57       
C           56.95       3.28        10.36       
N           58.0        2.43        10.01       
C           59.35       2.9         10.03       
O           55.77       2.97        10.28       
O           60.24       2.18        9.72        
O           61.6        8.51        12.49       
O           57.15       9.23        13.06       
C           59.78       9.95        13.72       
C           57.82       0.97        10.18       
H           60.52       9.57        14.45       
H           58.94       10.26       14.33       
H           60.1107     10.91334    13.33179    
H           58.36       0.34        9.4         
H           56.78       0.79        9.92        
H           58.02262    0.56477     11.17138    
H           62.15       6.46        11.37       
H           55.23       5.13        11.11       
C           56.23       5.46        11.17       
C           57.77       7.17        11.97       
C           56.47       6.7         11.77       
C           64.83       3.74        10.11       
C           64.12       3.5         8.95        
S           63.78       4.42        11.3        
H           61.99       3.67        8.26        
H           64.5        2.95        8.11        
C           62.74       3.86        9.06        
C           62.37       4.27        10.26       
C           68.63       3.11        10.13       
C           68.36       3.72        11.33       
S           67.25       2.88        9.1         
H           66.44       4.28        12.39       
H           69.12       3.94        12.07       
C           66.94       3.82        11.49       
C           66.21       3.48        10.4        
C           72.3        2.83        8.97        
C           71.5        2.0         8.2         
S           71.31       3.57        10.24       
H           69.36       1.6         7.69        
H           71.88       1.43        7.35        
C           70.12       2.11        8.36        
C           69.91       2.86        9.54        
C           78.81       3.46        8.2         
C           78.01       3.04        9.29        
C           78.19       3.7         6.98        
C           76.61       3.03        9.14        
C           75.95       3.36        7.96        
C           75.81       2.66        10.28       
C           76.79       3.78        6.82        
C           76.24       4.09        5.5         
N           74.82       4.07        5.36        
C           73.92       3.84        6.48        
C           76.33       2.34        11.61       
N           77.74       2.26        11.69       
C           78.61       2.68        10.67       
O           75.6        2.11        12.6        
O           79.82       2.57        10.83       
O           76.92       4.59        4.6         
O           72.73       4.08        6.31        
C           74.22       4.55        4.13        
C           78.32       1.69        12.87       
H           74.37       5.61        4.03        
H           73.14       4.51        4.16        
H           74.57041    3.98233     3.26799     
H           79.13       1.05        12.56       
H           77.51       1.13        13.37       
H           78.69962    2.46329     13.53784    
H           78.82       3.98        6.12        
H           73.93       2.31        10.98       
C           74.43       2.61        10.09       
C           74.55       3.45        7.81        
C           73.73       3.07        8.89        
C           82.52       4.67        8.42        
C           82.47       3.7         7.43        
S           80.92       5.05        8.99        
H           80.93       2.3         6.69        
H           83.33       3.35        6.87        
C           81.18       3.15        7.32        
C           80.25       3.75        8.15        
C           85.1        7.06        10.15       
C           85.79       6.18        9.35        
S           83.38       6.62        10.1        
H           85.32       4.55        7.89        
H           86.84       6.29        9.24        
C           84.97       5.25        8.6         
C           83.68       5.32        8.94        
C           86.88       9.79        12.42       
C           85.49       9.84        12.62       
S           87.26       8.54        11.28       
H           83.65       8.96        11.74       
H           85.05       10.59       13.28       
C           84.74       8.93        11.82       
C           85.57       8.05        11.09       
C           90.98       13.17       16.14       
C           89.94       13.55       15.29       
C           91.31       11.8        16.21       
C           89.26       12.6        14.6        
C           89.45       11.2        14.79       
C           88.31       12.98       13.67       
C           90.56       10.85       15.54       
C           90.91       9.44        15.84       
N           90.07       8.46        15.34       
C           88.99       8.81        14.55       
C           87.93       14.42       13.33       
N           88.72       15.32       14.05       
C           89.7        15.03       14.95       
O           87.09       14.71       12.52       
O           90.24       15.9        15.52       
O           91.77       9.1         16.64       
O           88.2        7.93        14.37       
C           90.19       7.07        15.66       
C           88.69       16.67       13.53       
H           89.35       6.43        15.43       
H           90.49       7.08        16.69       
H           90.99627    6.62762     15.07492    
H           88.65       17.35       14.36       
H           87.79       16.77       12.92       
H           89.51685    16.7983     12.83146    
H           92.05       11.5        16.92       
H           86.88       12.35       12.3        
C           87.65       11.99       12.97       
C           88.72       10.23       14.17       
C           87.79       10.62       13.24       
C           93.93       15.2        17.95       
C           92.88       15.16       18.78       
S           93.54       14.37       16.48       
H           90.78       14.25       18.81       
H           92.73       15.73       19.72       
C           91.74       14.42       18.28       
C           91.93       13.96       17.0        
C           97.49       16.22       19.16       
C           97.51       16.19       17.76       
S           95.87       15.88       19.79       
H           96.13       15.78       16.15       
H           98.36       16.35       17.15       
C           96.25       15.94       17.21       
C           95.25       15.74       18.14       
C           100.03      17.15       22.01       
C           100.73      16.83       20.9        
S           98.33       16.88       21.72       
H           100.23      16.19       18.78       
H           101.82      16.95       20.88       
C           99.91       16.51       19.73       
C           98.54       16.44       20.07       
C           103.33      20.75       26.48       
C           102.82      20.99       25.2        
C           103.12      19.44       26.98       
C           102.12      19.96       24.54       
C           101.82      18.69       25.14       
C           101.64      20.16       23.21       
C           102.31      18.49       26.4        
C           101.99      17.35       27.22       
N           101.29      16.33       26.48       
C           100.91      16.42       25.09       
C           101.67      21.47       22.49       
N           102.39      22.46       23.15       
C           103.0       22.27       24.43       
O           101.11      21.62       21.36       
O           103.48      23.28       24.9        
O           102.41      17.13       28.3        
O           100.28      15.55       24.47       
C           100.84      15.16       27.34       
C           102.49      23.78       22.5        
H           101.69      14.8        27.9        
H           100.28      14.36       26.78       
H           100.15596   15.51965    28.10866    
H           102.39      24.55       23.29       
H           101.59      23.88       21.79       
H           103.46525   23.85774    22.01944    
H           103.75      19.19       27.82       
H           100.83      19.43       21.57       
C           100.93      19.22       22.58       
C           101.14      17.74       24.35       
C           100.71      17.95       23.05       
C           106.31      23.07       27.66       
C           105.55      22.89       28.75       
S           105.79      22.03       26.37       
H           103.65      21.77       29.16       
H           105.75      23.29       29.7        
C           104.4       21.99       28.47       
C           104.33      21.57       27.16       
C           109.16      25.64       26.88       
C           109.38      25.13       28.14       
S           107.73      24.91       26.18       
H           108.42      23.75       29.58       
H           110.03      25.52       28.86       
C           108.47      24.13       28.57       
C           107.49      23.92       27.61       
C           110.39      29.16       25.89       
C           110.1       28.54       24.74       
S           110.51      27.89       27.16       
H           109.14      26.58       24.14       
H           109.98      29.07       23.81       
C           109.66      27.16       24.88       
C           109.79      26.7        26.15       
C           111.82      35.65       26.19       
C           112.21      34.64       25.33       
C           110.89      35.26       27.13       
C           111.72      33.31       25.55       
C           110.86      32.99       26.63       
C           112.21      32.23       24.77       
C           110.35      34.03       27.36       
C           109.21      33.89       28.26       
N           108.74      32.61       28.55       
C           109.23      31.49       27.82       
C           113.08      32.38       23.58       
N           113.51      33.68       23.41       
C           113.09      34.8        24.16       
O           113.32      31.46       22.82       
O           113.51      35.9        23.84       
O           108.67      34.77       28.87       
O           108.7       30.34       28.01       
C           107.46      32.45       29.26       
C           114.79      33.83       22.74       
H           107.13      31.45       29.2        
H           106.79      33.19       28.8        
H           107.54565   32.63558    30.33066    
H           114.93      34.83       22.32       
H           114.71      33.12       21.98       
H           115.61725   33.58463    23.406      
H           110.4       36.08       27.61       
H           112.02      30.15       24.35       
C           111.69      30.93       25.04       
C           110.22      31.66       26.75       
C           110.63      30.62       25.89       
C           111.48      39.45       25.76       
C           112.33      39.29       26.76       
S           111.02      37.9        25.08       
H           113.38      37.68       27.73       
H           112.7       40.05       27.4        
C           112.64      37.93       27.04       
C           112.07      37.06       26.11       
C           110.31      42.93       24.43       
C           109.26      42.06       24.34       
S           111.73      42.11       25.04       
H           108.88      39.91       24.68       
H           108.25      42.38       24.05       
C           109.57      40.74       24.69       
C           110.86      40.58       25.17       
C           110.2       46.42       22.93       
C           111.23      46.43       23.81       
S           109.36      44.91       22.82       
H           112.07      45.07       25.19       
H           111.88      47.25       24.01       
C           111.37      45.23       24.46       
C           110.38      44.31       24.05       
C           109.02      51.02       18.28       
C           110.15      50.32       18.62       
C           107.86      50.75       19.01       
C           110.13      49.37       19.7        
C           108.92      49.12       20.45       
C           111.25      48.58       20.09       
C           107.81      49.98       20.13       
C           106.6       50.01       20.91       
N           106.68      49.25       22.08       
C           107.65      48.3        22.46       
C           112.52      48.65       19.29       
N           112.58      49.65       18.36       
C           111.48      50.43       17.95       
O           113.5       48.02       19.69       
O           111.71      51.2        16.95       
O           105.62      50.72       20.6        
O           107.5       47.64       23.45       
C           106.01      49.83       23.33       
C           113.69      49.68       17.47       
H           105.92      50.92       23.23       
H           106.55      49.64       24.21       
H           105.01582   49.41216    23.48849    
H           113.27      49.57       16.44       
H           114.23      48.75       17.64       
H           114.32308   50.54782    17.65494    
H           107.13      51.5        18.85       
H           111.96      47.04       21.36       
C           111.1       47.66       21.14       
C           108.85      48.25       21.6        
C           109.97      47.51       21.95       
C           108.27      53.72       15.55       
C           109.25      54.3        16.34       
S           107.83      52.15       16.1        
H           110.18      53.65       18.21       
H           109.55      55.37       16.24       
C           109.57      53.37       17.37       
C           108.91      52.16       17.35       
C           106.15      55.81       13.04       
C           105.78      54.43       12.98       
S           107.49      55.95       14.13       
H           106.56      52.54       13.86       
H           105.02      54.07       12.28       
C           106.64      53.59       13.78       
C           107.52      54.28       14.51       
H           71.3        39.25       36.56       
H           105.5       56.69       12.98       
