512

C           71.7        29.78       38.96       
C           72.22       28.82       38.1        
S           72.45       31.24       38.55       
H           73.46       28.83       36.27       
H           71.95       27.78       38.2        
C           73.05       29.33       37.06       
C           73.24       30.68       37.1        
C           66.78       29.04       43.34       
C           68.08       29.49       43.4        
C           66.43       28.49       42.14       
C           68.99       29.39       42.32       
C           68.6        28.94       41.02       
C           70.3        29.94       42.43       
C           67.24       28.44       41.0        
C           66.6        27.96       39.74       
N           67.4        28.06       38.59       
C           68.83       28.39       38.62       
C           70.79       30.6        43.66       
N           69.87       30.78       44.73       
C           68.55       30.25       44.65       
O           71.98       30.97       43.72       
O           67.85       30.53       45.57       
O           65.43       27.57       39.82       
O           69.41       28.28       37.55       
C           66.89       27.43       37.36       
C           70.05       31.79       45.8        
H           67.67       27.26       36.64       
H           66.73       26.46       37.71       
H           66.01226    27.89765    36.91393    
H           69.06       32.35       45.88       
H           70.78       32.46       45.43       
H           70.37613    31.33625    46.73587    
H           65.46       28.05       41.99       
H           72.16       30.28       41.44       
C           71.15       29.85       41.3        
C           69.4        28.97       39.87       
C           70.71       29.45       40.0        
C           63.93       28.63       46.09       
C           64.09       29.93       45.83       
S           64.93       27.64       45.02       
H           65.51       31.09       44.57       
H           63.46       30.66       46.33       
C           65.11       30.19       44.85       
C           65.69       29.04       44.37       
C           60.74       27.75       48.03       
C           61.47       26.6        47.81       
S           61.62       29.07       47.41       
H           63.33       26.02       46.78       
H           61.08       25.67       48.12       
C           62.67       26.76       47.11       
C           62.88       28.05       46.83       
C           56.84       27.95       48.63       
C           57.46       28.71       49.58       
S           58.08       27.3        47.56       
H           59.61       29.06       50.32       
H           56.93       29.25       50.4        
C           58.93       28.65       49.53       
C           59.39       27.92       48.51       
C           50.41       26.9        49.18       
C           51.42       26.27       48.54       
C           50.65       28.21       49.68       
C           52.72       26.8        48.58       
C           53.02       28.08       49.05       
C           53.82       26.15       47.99       
C           51.9        28.75       49.56       
C           51.99       30.19       50.04       
N           53.27       30.77       50.01       
C           54.4        30.11       49.47       
C           53.69       24.78       47.42       
N           52.39       24.28       47.34       
C           51.25       24.95       47.78       
O           54.73       24.17       46.99       
O           50.2        24.36       47.54       
O           51.09       30.7        50.45       
O           55.48       30.7        49.45       
C           53.25       32.26       49.98       
C           52.3        22.93       46.79       
H           52.47       32.63       49.3        
H           54.1        32.66       49.54       
H           53.25708    32.58552    51.02024    
H           51.42       22.49       47.2        
H           53.23       22.41       47.12       
H           52.21532    22.93706    45.70332    
H           49.82       28.86       49.98       
H           55.87       25.97       47.63       
C           55.1        26.66       48.01       
C           54.31       28.68       48.97       
C           55.38       27.94       48.44       
C           46.6        26.21       48.73       
C           46.78       26.48       50.03       
S           48.05       26.32       47.77       
H           48.4        27.02       51.34       
H           45.92       26.7        50.68       
C           48.13       26.71       50.3        
C           48.99       26.63       49.15       
C           43.54       25.37       46.43       
C           43.07       25.61       47.65       
S           45.25       25.37       46.41       
H           43.83       26.12       49.64       
H           42.03       25.63       47.8        
C           44.05       25.93       48.63       
C           45.33       25.93       48.07       
C           42.01       24.82       42.82       
C           41.0        25.08       43.69       
S           43.52       24.91       43.64       
H           40.81       25.54       45.94       
H           39.99       25.0        43.36       
C           41.41       25.4        45.05       
C           42.76       25.19       45.17       
C           41.34       21.97       36.93       
C           40.93       21.59       38.23       
C           41.93       23.25       36.78       
C           41.23       22.51       39.24       
C           42.0        23.69       39.15       
C           40.75       22.25       40.54       
C           42.38       24.03       37.83       
C           43.1        25.29       37.51       
N           43.22       26.19       38.6        
C           43.02       25.8        39.98       
C           39.83       21.06       40.84       
N           39.86       20.03       39.89       
C           40.31       20.3        38.6        
O           39.39       20.96       41.98       
O           40.31       19.36       37.83       
O           43.5        25.51       36.34       
O           43.37       26.65       40.82       
C           43.6        27.58       38.34       
C           39.94       18.64       40.44       
H           44.58       27.59       37.81       
H           43.72       28.19       39.3        
H           42.8409     28.06951    37.72988    
H           39.52       17.98       39.68       
H           39.14       18.53       41.17       
H           40.89195    18.41926    40.92287    
H           42.25       23.52       35.78       
H           40.65       22.75       42.57       
C           41.01       23.11       41.59       
C           42.33       24.48       40.25       
C           41.84       24.18       41.53       
C           40.51       19.81       33.8        
C           39.72       20.93       33.65       
S           41.54       19.88       35.17       
H           39.54       22.75       34.76       
H           38.96       21.06       32.89       
C           40.0        21.8        34.76       
C           40.95       21.36       35.65       
C           41.58       16.86       31.52       
C           40.34       17.17       31.17       
S           42.17       17.95       32.71       
H           38.71       18.53       31.84       
H           39.81       16.55       30.51       
C           39.77       18.23       31.97       
C           40.64       18.77       32.83       
C           44.16       14.27       31.97       
C           43.32       13.63       31.11       
S           43.68       15.84       32.38       
H           41.29       14.08       30.2        
H           43.36       12.59       30.81       
C           42.18       14.43       30.79       
C           42.4        15.73       31.2        
C           49.23       10.44       33.98       
C           49.16       11.81       33.6        
C           48.06       9.76        34.16       
C           47.85       12.41       33.35       
C           46.64       11.64       33.49       
C           47.72       13.7        32.85       
C           46.83       10.33       33.95       
C           45.64       9.43        34.01       
N           44.38       9.98        33.72       
C           44.23       11.3        33.28       
C           48.93       14.58       32.7        
N           50.15       13.98       32.99       
C           50.37       12.67       33.38       
O           48.8        15.76       32.5        
O           51.49       12.27       33.54       
O           45.78       8.38        34.47       
O           43.06       11.6        33.12       
C           43.2        9.11        33.96       
C           51.4        14.8        33.0        
H           42.33       9.65        33.85       
H           43.22       8.75        35.0        
H           43.20713    8.26166     33.27563    
H           52.16       14.37       33.73       
H           51.14       15.78       33.35       
H           51.93103    14.8559     32.04974    
H           48.11       8.71        34.2        
H           46.52       15.23       32.0        
C           46.49       14.3        32.55       
C           45.36       12.24       33.15       
C           45.27       13.56       32.65       
C           52.35       7.9         34.02       
C           51.55       7.66        35.1        
S           51.68       9.2         33.02       
H           49.7        8.6         35.86       
H           51.73       6.83        35.69       
C           50.44       8.57        35.1        
C           50.36       9.49        34.09       
C           54.88       5.6         32.09       
C           54.84       5.27        33.39       
S           53.84       7.01        31.75       
H           53.76       5.84        35.17       
H           55.46       4.47        33.8        
C           53.92       5.99        34.11       
C           53.41       7.02        33.43       
C           57.36       3.96        29.53       
C           56.37       4.45        28.83       
S           57.09       4.11        31.27       
H           54.58       5.72        29.15       
H           56.33       4.55        27.75       
C           55.38       5.1         29.62       
C           55.61       5.04        31.01       
C           62.97       1.4         26.91       
C           62.15       1.07        28.0        
C           62.52       2.49        26.09       
C           60.92       1.73        28.22       
C           60.45       2.85        27.43       
C           60.08       1.47        29.27       
C           61.26       3.04        26.25       
C           60.84       4.04        25.24       
N           59.84       4.94        25.67       
C           59.07       4.81        26.83       
C           60.27       0.25        30.19       
N           61.43       -0.54       29.8        
C           62.32       -0.21       28.7        
O           59.6        -0.13       31.16       
O           62.97       -1.2        28.34       
O           61.45       4.24        24.24       
O           58.22       5.65        27.14       
C           59.34       5.85        24.6        
C           61.71       -1.84       30.47       
H           58.42       6.4         24.79       
H           59.12       5.2         23.76       
H           59.98179    6.68927     24.332      
H           61.75       -2.65       29.72       
H           60.87       -2.08       31.11       
H           62.65914    -1.91083    31.00124    
H           63.13       2.75        25.28       
H           58.28       1.96        30.27       
C           58.93       2.21        29.51       
C           59.3        3.64        27.71       
C           58.53       3.35        28.88       
C           66.72       0.65        25.88       
C           66.57       0.25        27.2        
S           65.12       0.97        25.16       
H           65.04       -0.04       28.63       
H           67.45       0.01        27.82       
C           65.21       0.25        27.56       
C           64.36       0.98        26.73       
C           70.27       1.32        24.23       
C           69.29       1.48        23.27       
S           69.49       0.84        25.71       
H           67.06       1.26        23.02       
H           69.56       1.67        22.24       
C           67.96       1.25        23.71       
C           67.9        0.94        25.03       
C           74.02       1.79        23.36       
C           73.76       2.54        24.46       
S           72.71       0.77        22.98       
H           72.01       2.84        25.84       
H           74.45       3.28        24.84       
C           72.45       2.33        24.99       
C           71.74       1.55        24.17       
C           79.85       1.55        20.29       
C           79.09       0.51        20.84       
C           79.36       2.9         20.34       
C           77.86       0.96        21.48       
C           77.43       2.26        21.6        
C           77.02       -0.0        22.08       
C           78.24       3.22        20.97       
C           77.93       4.69        20.93       
N           76.69       5.05        21.57       
C           75.76       4.17        22.17       
C           77.22       -1.45       22.0        
N           78.37       -1.79       21.21       
C           79.37       -0.93       20.75       
O           76.46       -2.27       22.44       
O           80.31       -1.46       20.23       
O           78.69       5.54        20.49       
O           74.75       4.65        22.61       
C           76.34       6.47        21.53       
C           78.31       -3.11       20.52       
H           77.17       7.08        22.01       
H           75.48       6.73        22.2        
H           76.0197     6.75623     20.52821    
H           78.8        -3.0        19.6        
H           77.26       -3.32       20.39       
H           78.75946    -3.90357    21.11693    
H           79.95       3.63        19.82       
H           75.32       -0.4        23.25       
C           75.83       0.45        22.71       
C           76.2        2.71        22.16       
C           75.34       1.77        22.71       
C           82.76       2.08        17.51       
C           82.22       0.88        17.38       
S           82.02       2.86        18.87       
H           80.62       -0.36       18.34       
H           82.48       0.12        16.67       
C           81.18       0.55        18.33       
C           80.85       1.57        19.16       
C           85.36       4.59        16.21       
C           85.46       3.49        15.39       
S           84.33       4.29        17.52       
H           84.46       1.38        15.3        
H           86.13       3.46        14.54       
C           84.62       2.33        15.81       
C           83.85       2.72        16.89       
C           86.74       8.1         16.82       
C           87.48       7.55        15.83       
S           85.46       7.06        17.23       
H           87.59       5.7         14.71       
H           88.36       7.89        15.36       
C           87.08       6.31        15.4        
C           86.14       5.78        16.27       
C           88.35       13.67       19.89       
C           87.54       12.64       20.24       
C           88.81       13.78       18.56       
C           87.29       11.61       19.27       
C           87.82       11.64       17.95       
C           86.5        10.52       19.62       
C           88.59       12.82       17.66       
C           89.13       13.03       16.32       
N           88.88       11.99       15.3        
C           88.18       10.81       15.62       
C           85.84       10.37       20.98       
N           86.07       11.45       21.87       
C           86.94       12.53       21.6        
O           85.09       9.39        21.32       
O           86.97       13.34       22.53       
O           89.79       13.98       16.09       
O           88.04       9.98        14.74       
C           88.66       12.42       13.94       
C           85.52       11.38       23.24       
H           88.23       13.36       13.86       
H           87.98       11.81       13.41       
H           89.63474    12.39881    13.45263    
H           86.34       11.66       24.0        
H           85.22       10.37       23.39       
H           84.66222    12.04564    23.33607    
H           89.46       14.61       18.32       
H           85.78       8.7         19.13       
C           86.29       9.55        18.68       
C           87.62       10.59       17.02       
C           86.87       9.45        17.41       
C           90.54       16.1        22.3        
C           89.98       16.78       21.26       
S           89.92       14.44       22.08       
H           88.54       16.53       19.6        
H           90.45       17.71       21.01       
C           89.07       16.07       20.43       
C           88.94       14.75       20.7        
C           93.75       17.54       23.78       
C           93.67       16.29       24.21       
S           92.37       18.05       22.9        
H           92.33       14.51       23.93       
H           94.58       15.85       24.54       
C           92.52       15.57       23.7        
C           91.67       16.44       23.05       
C           96.49       20.42       23.48       
C           96.88       19.55       24.46       
S           94.89       20.0        22.91       
H           96.16       17.62       25.46       
H           97.82       19.65       24.95       
C           95.95       18.47       24.73       
C           94.82       18.52       23.9        
C           100.52      25.55       22.55       
C           99.12       25.43       22.7        
C           101.22      24.37       22.56       
C           98.54       24.13       22.77       
C           99.34       22.91       22.92       
C           97.16       23.96       22.87       
C           100.7       23.11       22.66       
C           101.69      22.01       22.47       
N           101.15      20.74       22.67       
C           99.73       20.52       22.94       
C           96.21       25.17       22.84       
N           96.81       26.4        22.76       
C           98.22       26.65       22.8        
O           95.02       25.04       22.95       
O           98.6        27.82       22.93       
O           102.87      22.15       22.32       
O           99.37       19.34       23.02       
C           102.12      19.58       22.45       
C           95.99       27.63       22.74       
H           102.58      19.73       21.52       
H           101.63      18.61       22.47       
H           102.87139   19.50978    23.2365     
H           96.42       28.33       23.53       
H           95.05       27.33       23.12       
H           95.80097    28.13894    21.79483    
H           102.24      24.4        22.28       
H           95.49       22.73       22.97       
C           96.59       22.76       23.09       
C           98.75       21.68       23.07       
C           97.34       21.59       23.11       
C           102.49      28.51       20.81       
C           103.18      28.1        21.87       
S           100.94      27.76       20.72       
H           102.93      26.69       23.61       
H           104.15      28.51       22.13       
C           102.53      27.07       22.64       
C           101.35      26.7        22.1        
C           102.63      31.59       18.49       
C           103.85      31.52       19.11       
S           101.62      30.27       18.99       
H           104.93      30.1        20.43       
H           104.63      32.28       19.05       
C           104.05      30.29       19.82       
C           102.9       29.56       19.9        
C           101.79      35.07       16.68       
C           100.66      34.38       16.97       
S           103.19      34.0        17.0        
H           99.94       32.49       18.01       
H           99.71       34.8        16.72       
C           100.8       33.06       17.55       
C           102.18      32.76       17.72       
C           102.54      41.39       15.07       
C           101.67      40.72       15.9        
C           103.32      40.66       14.2        
C           101.6       39.31       15.91       
C           102.51      38.5        15.11       
C           100.89      38.55       16.9        
C           103.35      39.25       14.24       
C           104.31      38.61       13.35       
N           104.38      37.2        13.4        
C           103.6       36.43       14.32       
C           100.04      39.27       17.84       
N           99.94       40.65       17.65       
C           100.72      41.37       16.81       
O           99.47       38.57       18.66       
O           100.67      42.62       16.93       
O           104.88      39.25       12.5        
O           104.04      35.27       14.51       
C           105.02      36.53       12.29       
C           99.23       41.37       18.79       
H           104.71      37.05       11.37       
H           104.67      35.51       12.19       
H           106.10931   36.49393    12.30443    
H           99.89       42.07       19.22       
H           99.14       40.69       19.71       
H           98.3159     41.88636    18.49693    
H           104.2       41.14       13.66       
H           100.61      36.74       17.88       
C           101.01      37.21       16.96       
C           102.66      37.09       15.22       
C           101.8       36.39       16.12       
C           103.31      45.21       14.08       
C           103.3       45.06       15.47       
S           103.07      43.64       13.39       
H           103.0       43.5        16.97       
H           103.45      45.89       16.06       
C           103.13      43.7        15.92       
C           102.81      42.82       14.94       
C           104.81      48.54       12.55       
C           104.55      47.6        11.57       
S           104.25      47.79       14.01       
H           103.57      45.62       11.31       
H           104.78      47.74       10.49       
C           103.87      46.43       11.98       
C           103.69      46.37       13.28       
C           107.32      51.49       12.34       
C           106.54      51.66       13.42       
S           106.91      49.97       11.62       
H           104.86      50.67       14.46       
H           106.63      52.58       14.02       
C           105.52      50.71       13.61       
C           105.56      49.75       12.65       
C           112.91      54.63       10.88       
C           112.6       53.78       11.96       
C           111.96      55.01       9.92        
C           111.24      53.34       12.04       
C           110.27      53.64       11.03       
C           110.79      52.59       13.15       
C           110.67      54.49       9.97        
C           109.67      54.79       8.82        
N           108.37      54.21       8.88        
C           108.01      53.43       9.97        
C           111.75      52.02       14.15       
N           113.07      52.33       13.88       
C           113.56      53.23       12.94       
O           111.36      51.39       15.2        
O           114.74      53.32       12.83       
O           109.85      55.67       8.03        
O           106.87      53.09       9.92        
C           107.6       54.13       7.66        
C           114.1       51.46       14.63       
H           106.96      53.24       7.61        
H           108.33      54.13       6.87        
H           106.91766   54.97754    7.59536     
H           114.77      51.22       13.87       
H           113.6       50.59       15.0        
H           114.61743   52.03337    15.39916    
H           112.12      55.75       9.18        
H           109.28      51.38       13.96       
C           109.52      52.09       13.16       
C           108.98      53.09       11.05       
C           108.56      52.31       12.13       
C           116.27      55.95       9.2         
C           116.38      56.13       10.54       
S           114.78      55.26       8.89        
H           115.06      55.95       12.28       
H           117.26      56.57       11.01       
C           115.21      55.69       11.28       
C           114.18      55.19       10.52       
C           119.09      55.92       6.51        
C           117.91      56.39       5.96        
S           118.84      55.66       8.24        
H           115.75      56.72       6.58        
H           117.88      56.71       4.94        
C           116.8       56.49       6.83        
C           117.2       56.18       8.1         
H           73.18       31.23       36.17       
H           120.03      55.95       6.04        
