512

C           61.7        4.19        2.62        
C           62.88       4.37        3.18        
S           61.48       5.36        1.33        
H           64.75       5.56        2.88        
H           63.13       3.73        4.04        
C           63.73       5.4         2.63        
C           63.13       5.95        1.46        
C           57.31       0.06        5.28        
C           57.91       1.15        5.78        
C           57.39       -0.24       3.9         
C           58.84       1.87        4.92        
C           59.08       1.51        3.57        
C           59.53       3.0         5.38        
C           58.31       0.39        3.11        
C           58.46       -0.15       1.73        
N           59.42       0.47        0.94        
C           60.21       1.52        1.4         
C           59.42       3.54        6.78        
N           58.61       2.71        7.57        
C           57.83       1.59        7.22        
O           59.95       4.63        7.2         
O           57.19       0.93        8.05        
O           57.85       -1.15       1.33        
O           60.95       2.01        0.6         
C           59.7        -0.16       -0.3        
C           58.37       3.24        8.93        
H           60.73       -0.06       -0.6        
H           59.72       -1.23       -0.21       
H           59.01348    0.2214      -1.05586    
H           57.34       3.21        9.11        
H           58.72       4.25        9.01        
H           58.9254     2.70542     9.70062     
H           57.02       -1.16       3.46        
H           60.89       4.55        4.92        
C           60.44       3.66        4.52        
C           60.05       2.13        2.76        
C           60.79       3.21        3.22        
C           55.02       -2.85       6.63        
C           54.36       -1.69       6.77        
S           56.54       -2.64       5.81        
H           54.94       0.44        6.44        
H           53.26       -1.62       7.02        
C           55.21       -0.6        6.42        
C           56.33       -0.91       5.85        
C           53.82       -6.33       7.77        
C           55.13       -6.29       8.05        
S           53.2        -4.8        7.3         
H           56.76       -4.81       7.64        
H           55.67       -7.12       8.48        
C           55.69       -5.06       7.6         
C           54.74       -4.15       7.07        
C           51.45       -9.44       7.96        
C           50.68       -8.39       8.23        
S           53.11       -8.98       7.73        
H           50.92       -6.25       8.35        
H           49.63       -8.4        8.35        
C           51.4        -7.21       8.21        
C           52.77       -7.31       8.01        
C           48.82       -15.55      8.17        
C           49.18       -14.57      9.18        
C           49.26       -15.26      6.85        
C           49.72       -13.35      8.82        
C           50.16       -13.11      7.5         
C           49.96       -12.28      9.72        
C           49.9        -14.14      6.55        
C           50.27       -14.04      5.12        
N           50.76       -12.77      4.73        
C           51.13       -11.74      5.67        
C           49.63       -12.42      11.16       
N           49.23       -13.75      11.53       
C           48.97       -14.81      10.63       
O           49.78       -11.59      12.03       
O           48.38       -15.82      11.03       
O           50.2        -14.97      4.39        
O           51.59       -10.63      5.3         
C           50.72       -12.27      3.33        
C           48.71       -13.94      12.95       
H           51.53       -12.72      2.78        
H           50.97       -11.21      3.28        
H           49.73676    -12.44225   2.89221     
H           47.73       -14.49      12.92       
H           48.57       -12.99      13.43       
H           49.40425    -14.46069   13.60954    
H           49.09       -16.0       6.01        
H           50.85       -10.36      9.95        
C           50.54       -11.13      9.24        
C           50.71       -11.86      7.06        
C           50.86       -10.8       7.95        
C           47.31       -19.19      7.9         
C           46.33       -18.41      8.4         
S           48.87       -18.36      7.82        
H           46.29       -16.33      9.26        
H           45.33       -18.68      8.72        
C           46.81       -17.05      8.58        
C           48.14       -16.86      8.18        
C           46.48       -22.91      6.8         
C           47.87       -22.77      6.88        
S           45.73       -21.46      7.34        
H           49.28       -21.04      7.08        
H           48.57       -23.55      6.6         
C           48.28       -21.44      7.19        
C           47.24       -20.6       7.53        
C           44.72       -25.54      4.61        
C           43.93       -25.4       5.75        
S           46.12       -24.52      4.7         
H           43.97       -24.33      7.78        
H           43.06       -25.96      5.96        
C           44.47       -24.59      6.77        
C           45.61       -23.96      6.23        
C           43.18       -29.2       -0.72       
C           43.68       -29.49      0.54        
C           42.74       -27.85      -0.98       
C           43.94       -28.42      1.49        
C           43.52       -27.11      1.21        
C           44.33       -28.77      2.85        
C           42.97       -26.86      -0.04       
C           42.39       -25.5       -0.34       
N           42.65       -24.51      0.59        
C           43.16       -24.74      1.85        
C           44.5        -30.16      3.26        
N           44.4        -31.14      2.23        
C           44.07       -30.84      0.9         
O           44.68       -30.45      4.42        
O           43.71       -31.8       0.23        
O           41.8        -25.36      -1.38       
O           43.18       -23.79      2.64        
C           42.09       -23.21      0.18        
C           44.92       -32.51      2.51        
H           42.49       -22.32      0.7         
H           41.01       -23.28      0.19        
H           42.50616    -22.85627   -0.76329    
H           44.28       -33.28      2.06        
H           44.93       -32.65      3.62        
H           45.96916    -32.57337   2.2213      
H           42.36       -27.6       -1.9        
H           44.92       -27.99      4.7         
C           44.44       -27.78      3.79        
C           43.66       -26.11      2.24        
C           44.26       -26.45      3.5         
C           42.93       -30.97      -4.33       
C           44.04       -31.43      -3.67       
S           41.96       -29.99      -3.2        
H           45.05       -31.0       -1.71       
H           44.74       -32.12      -4.0        
C           44.25       -30.86      -2.36       
C           43.21       -29.96      -2.0        
C           42.57       -31.25      -8.16       
C           41.41       -30.69      -7.71       
S           43.68       -31.63      -6.83       
H           40.45       -30.31      -5.74       
H           40.73       -30.22      -8.35       
C           41.29       -30.71      -6.29       
C           42.45       -31.17      -5.68       
C           44.49       -31.97      -11.66      
C           43.35       -31.29      -11.83      
S           44.55       -32.36      -9.96       
H           41.62       -30.48      -10.62      
H           43.08       -31.01      -12.83      
C           42.55       -31.06      -10.7       
C           43.09       -31.49      -9.53       
C           49.44       -33.0       -15.83      
C           48.81       -31.83      -15.47      
C           49.09       -34.18      -15.3       
C           47.73       -31.88      -14.53      
C           47.29       -33.14      -14.01      
C           47.0        -30.79      -14.14      
C           47.95       -34.27      -14.52      
C           47.57       -35.61      -14.1       
N           46.46       -35.72      -13.25      
C           45.62       -34.67      -12.85      
C           47.36       -29.42      -14.65      
N           48.43       -29.34      -15.61      
C           49.08       -30.48      -16.09      
O           46.72       -28.46      -14.23      
O           50.03       -30.2       -16.85      
O           48.22       -36.59      -14.43      
O           44.68       -34.98      -12.09      
C           45.89       -37.17      -13.16      
C           48.3        -28.25      -16.6       
H           45.81       -37.59      -14.11      
H           44.82       -37.12      -12.99      
H           46.51932    -37.73017   -12.46843   
H           49.26       -27.85      -16.83      
H           47.84       -27.46      -16.03      
H           47.67348    -28.58126   -17.42816   
H           49.69       -35.05      -15.57      
H           45.34       -30.1       -13.18      
C           45.96       -30.92      -13.29      
C           46.17       -33.28      -13.2       
C           45.59       -32.14      -12.68      
C           52.96       -34.0       -17.3       
C           52.31       -33.24      -18.25      
S           52.04       -33.98      -15.85      
H           50.28       -32.39      -18.44      
H           52.7        -33.04      -19.17      
C           50.98       -32.89      -17.84      
C           50.69       -33.22      -16.58      
C           55.98       -36.35      -16.78      
C           55.78       -36.22      -18.1       
S           54.9        -35.26      -15.89      
H           54.44       -34.99      -19.43      
H           56.47       -36.68      -18.81      
C           54.82       -35.21      -18.44      
C           54.2        -34.65      -17.38      
C           58.13       -38.59      -14.52      
C           57.98       -39.2       -15.74      
S           57.2        -37.16      -14.45      
H           56.7        -38.95      -17.48      
H           58.54       -40.1       -16.03      
C           57.06       -38.56      -16.57      
C           56.76       -37.31      -16.1       
C           62.23       -41.23      -10.07      
C           62.15       -39.92      -10.52      
C           61.32       -42.2       -10.47      
C           61.16       -39.7       -11.54      
C           60.22       -40.69      -12.01      
C           61.06       -38.47      -12.21      
C           60.3        -42.02      -11.39      
C           59.42       -43.13      -11.72      
N           58.51       -42.84      -12.73      
C           58.36       -41.61      -13.38      
C           61.96       -37.36      -11.85      
N           62.97       -37.59      -10.93      
C           63.08       -38.8       -10.21      
O           61.93       -36.28      -12.39      
O           64.03       -38.91      -9.5        
O           59.6        -44.28      -11.3       
O           57.47       -41.52      -14.22      
C           57.73       -44.03      -13.19      
C           63.96       -36.55      -10.52      
H           58.41       -44.86      -13.44      
H           57.13       -43.75      -14.08      
H           56.98704    -44.35459   -12.46147   
H           64.06       -36.44      -9.45       
H           63.5        -35.5       -10.68      
H           64.9067     -36.6002    -11.0579    
H           61.46       -43.22      -10.21      
H           60.03       -37.14      -13.5       
C           60.06       -38.19      -13.15      
C           59.14       -40.45      -12.97      
C           59.1        -39.17      -13.56      
C           65.51       -42.14      -8.16       
C           64.62       -41.88      -7.21       
S           64.79       -42.28      -9.77       
H           62.52       -41.06      -7.24       
H           64.89       -41.55      -6.2        
C           63.29       -41.62      -7.73       
C           63.25       -41.78      -9.14       
C           69.38       -42.51      -8.76       
C           69.24       -42.29      -7.46       
S           67.88       -42.51      -9.61       
H           67.64       -41.81      -6.08       
H           70.07       -42.15      -6.8        
C           67.89       -42.13      -7.1        
C           66.93       -42.33      -8.12       
C           72.81       -43.66      -10.35      
C           72.69       -42.34      -10.52      
S           71.3        -44.25      -9.79       
H           71.34       -40.69      -9.86       
H           73.45       -41.76      -11.11      
C           71.5        -41.76      -9.93       
C           70.65       -42.66      -9.45       
C           77.92       -47.6       -11.66      
C           76.8        -47.21      -12.4       
C           78.03       -47.19      -10.31      
C           75.9        -46.24      -11.87      
C           75.93       -45.93      -10.48      
C           74.85       -45.73      -12.65      
C           77.02       -46.42      -9.7        
C           77.04       -46.2       -8.24       
N           75.97       -45.41      -7.7        
C           75.0        -44.8       -8.53       
C           74.62       -46.17      -14.1       
N           75.5        -47.21      -14.5       
C           76.59       -47.74      -13.8       
O           73.68       -45.79      -14.86      
O           77.36       -48.48      -14.48      
O           77.84       -46.78      -7.54       
O           74.22       -44.08      -7.96       
C           75.43       -45.75      -6.37       
C           75.05       -48.17      -15.55      
H           75.82       -46.75      -6.14       
H           74.35       -45.86      -6.47       
H           75.68202    -45.03596   -5.58595    
H           75.78       -48.25      -16.37      
H           74.22       -47.69      -16.11      
H           74.76111    -49.13531   -15.13428   
H           78.84       -47.6       -9.69       
H           73.16       -44.54      -12.8       
C           73.95       -44.83      -12.14      
C           74.88       -45.12      -10.0       
C           73.93       -44.47      -10.79      
C           80.95       -50.05      -12.54      
C           79.83       -50.77      -12.28      
S           80.64       -48.36      -12.26      
H           77.73       -50.27      -11.86      
H           79.86       -51.88      -12.32      
C           78.7        -49.96      -12.06      
C           78.93       -48.6       -12.04      
C           84.54       -50.73      -13.87      
C           84.41       -51.53      -12.79      
S           83.18       -49.69      -14.01      
H           82.71       -52.12      -11.44      
H           85.13       -52.24      -12.42      
C           83.09       -51.45      -12.21      
C           82.32       -50.48      -12.81      
C           88.15       -50.04      -15.03      
C           87.34       -49.5       -15.95      
S           87.25       -50.99      -13.85      
H           85.16       -49.31      -16.33      
H           87.74       -49.0       -16.85      
C           85.96       -49.75      -15.73      
C           85.78       -50.44      -14.54      
C           94.62       -49.36      -15.51      
C           93.73       -49.25      -14.45      
C           94.2        -49.92      -16.74      
C           92.35       -49.52      -14.61      
C           91.9        -49.95      -15.87      
C           91.39       -49.22      -13.63      
C           92.84       -50.17      -16.94      
C           92.52       -50.59      -18.36      
N           91.18       -50.8       -18.59      
C           90.27       -50.6       -17.59      
C           91.74       -48.6       -12.39      
N           93.13       -48.42      -12.16      
C           94.13       -48.75      -13.06      
O           90.91       -48.16      -11.72      
O           95.28       -48.58      -12.75      
O           93.35       -50.47      -19.3       
O           89.12       -50.91      -17.76      
C           90.63       -50.69      -19.95      
C           93.63       -47.62      -10.98      
H           91.14       -49.88      -20.47      
H           89.64       -50.24      -19.96      
H           90.68849    -51.62589   -20.50569   
H           94.44       -48.16      -10.46      
H           92.74       -47.69      -10.34      
H           93.719      -46.55887   -11.21276   
H           94.88       -49.93      -17.58      
H           89.4        -49.21      -13.22      
C           90.11       -49.42      -13.98      
C           90.55       -50.23      -16.13      
C           89.63       -49.94      -15.12      
C           98.35       -48.06      -15.81      
C           98.37       -49.46      -15.81      
S           96.71       -47.45      -15.81      
H           96.97       -51.08      -15.55      
H           99.25       -50.07      -15.86      
C           97.06       -49.99      -15.65      
C           96.04       -49.04      -15.61      
C           101.17      -45.37      -16.06      
C           101.75      -46.52      -15.66      
S           99.44       -45.61      -16.14      
H           101.19      -48.65      -15.33      
H           102.78      -46.64      -15.5       
C           100.88      -47.66      -15.59      
C           99.57       -47.27      -15.8       
C           102.21      -42.0       -17.53      
C           103.06      -42.25      -16.51      
S           101.0       -43.2       -17.61      
H           103.46      -43.96      -15.07      
H           103.9       -41.62      -16.34      
C           102.8       -43.46      -15.81      
C           101.73      -44.07      -16.37      
C           101.88      -36.93      -21.7       
C           101.28      -37.14      -20.44      
C           102.54      -38.0       -22.36      
C           101.67      -38.29      -19.74      
C           102.39      -39.34      -20.29      
C           101.14      -38.57      -18.48      
C           102.83      -39.12      -21.67      
C           103.67      -40.06      -22.41      
N           103.82      -41.28      -21.73      
C           103.4       -41.54      -20.43      
C           100.18      -37.64      -17.85      
N           99.96       -36.38      -18.44      
C           100.49      -36.06      -19.69      
O           99.62       -37.96      -16.76      
O           100.45      -34.83      -19.97      
O           104.1       -39.83      -23.56      
O           103.55      -42.6       -19.96      
C           104.46      -42.38      -22.46      
C           99.05       -35.44      -17.83      
H           104.91      -43.12      -21.82      
H           105.4       -42.06      -22.97      
H           103.79678   -42.89123   -23.15777   
H           99.35       -34.43      -17.88      
H           99.05       -35.71      -16.74      
H           98.05574    -35.53167   -18.26719   
H           102.96      -37.88      -23.34      
H           100.96      -39.86      -16.88      
C           101.4       -39.75      -17.84      
C           102.74      -40.55      -19.58      
C           102.24      -40.79      -18.31      
C           102.43      -34.09      -24.3       
C           101.07      -34.35      -24.27      
S           103.34      -35.14      -23.29      
H           99.64       -35.54      -23.17      
H           100.4       -33.9       -25.0       
C           100.72      -35.32      -23.31      
C           101.82      -35.83      -22.66      
C           103.84      -32.07      -27.41      
C           104.78      -33.01      -27.0       
S           102.45      -32.19      -26.32      
H           105.03      -34.49      -25.3       
H           105.75      -33.25      -27.45      
C           104.32      -33.75      -25.86      
C           103.1       -33.47      -25.37      
C           104.93      -29.51      -29.92      
C           103.64      -29.21      -29.66      
S           105.45      -30.95      -29.11      
H           102.09      -29.99      -28.33      
H           103.15      -28.25      -29.98      
C           103.09      -30.06      -28.71      
C           103.9       -31.11      -28.43      
C           108.5       -24.9       -32.9       
C           108.49      -25.39      -31.69      
C           107.6       -25.38      -33.86      
C           107.56      -26.41      -31.41      
C           106.57      -26.91      -32.3       
C           107.47      -27.04      -30.12      
C           106.69      -26.37      -33.6       
C           105.79      -26.75      -34.69      
N           104.82      -27.69      -34.31      
C           104.75      -28.34      -33.03      
C           108.32      -26.61      -29.02      
N           109.3       -25.69      -29.33      
C           109.46      -25.12      -30.6       
O           108.3       -27.19      -27.97      
O           110.4       -24.38      -30.71      
O           105.72      -26.1       -35.78      
O           103.86      -29.24      -33.0       
C           103.45      -27.19      -34.71      
C           109.96      -25.01      -28.19      
H           103.51      -26.06      -34.63      
H           102.67      -27.43      -33.98      
H           103.05626   -27.53452   -35.66623   
H           110.97      -24.72      -28.45      
H           110.12      -25.71      -27.39      
H           109.32235   -24.21649   -27.80033   
H           107.68      -24.94      -34.96      
H           106.57      -28.51      -28.8       
C           106.6       -28.07      -29.77      
C           105.67      -27.99      -31.96      
C           105.75      -28.62      -30.72      
C           110.2       -21.86      -34.67      
C           111.23      -22.71      -34.36      
S           108.62      -22.45      -34.1       
H           111.43      -24.54      -33.24      
H           112.28      -22.49      -34.52      
C           110.75      -23.83      -33.63      
C           109.38      -23.91      -33.5       
C           109.73      -18.27      -36.2       
C           110.93      -18.7       -36.71      
S           108.93      -19.46      -35.24      
H           112.13      -20.6       -36.27      
H           111.58      -18.21      -37.4       
C           111.21      -20.04      -36.16      
C           110.27      -20.57      -35.31      
C           108.25      -14.66      -37.16      
C           107.29      -15.7       -37.21      
S           109.68      -15.44      -36.7       
H           107.15      -17.9       -36.96      
H           106.28      -15.55      -37.58      
C           107.73      -17.02      -36.94      
C           109.03      -17.08      -36.55      
C           106.97      -8.38       -38.83      
C           108.15      -9.11       -38.68      
C           105.7       -9.1        -38.58      
C           108.06      -10.49      -38.21      
C           106.81      -11.13      -37.86      
C           109.22      -11.29      -38.15      
C           105.64      -10.38      -38.05      
C           104.28      -10.84      -37.71      
N           104.21      -12.18      -37.26      
C           105.37      -13.0       -37.17      
C           110.54      -10.83      -38.53      
N           110.65      -9.47       -38.92      
C           109.51      -8.62       -39.11      
O           111.54      -11.53      -38.52      
O           109.71      -7.52       -39.62      
O           103.25      -10.11      -37.84      
O           105.11      -13.93      -36.53      
C           102.89      -12.89      -37.29      
C           111.95      -8.78       -38.83      
H           103.08      -13.95      -37.23      
H           102.56      -12.73      -38.35      
H           102.23085   -12.63924   -36.4589    
H           112.07      -7.98       -39.51      
H           112.73      -9.53       -39.04      
H           112.16246   -8.48256    -37.80312   
H           104.73      -8.62       -38.73      
H           110.0       -13.31      -37.98      
C           109.11      -12.6       -37.78      
C           106.79      -12.51      -37.43      
C           107.99      -13.21      -37.3       
C           105.71      -4.72       -39.77      
C           106.96      -4.6        -39.22      
S           105.3       -6.37       -39.86      
H           108.44      -5.97       -38.34      
H           107.43      -3.72       -38.96      
C           107.47      -5.86       -38.79      
C           106.71      -7.0        -39.02      
C           102.46      -2.66       -40.89      
C           103.45      -1.82       -40.38      
S           103.22      -4.25       -41.05      
H           105.32      -2.09       -39.26      
H           103.18      -0.83       -40.16      
C           104.61      -2.47       -39.91      
C           104.65      -3.78       -40.2       
H           63.75       6.17        0.57        
H           101.41      -2.56       -40.81      
