512

C           59.61       43.09       2.42        
C           60.7        43.86       2.33        
S           58.47       43.88       3.42        
H           61.39       45.79       2.91        
H           61.53       43.66       1.68        
C           60.55       45.07       2.94        
C           59.36       45.36       3.48        
C           58.92       36.9        0.33        
C           59.77       37.49       1.25        
C           58.1        37.81       -0.32       
C           59.64       38.9        1.44        
C           58.64       39.74       0.93        
C           60.63       39.64       2.2         
C           57.84       39.12       0.06        
C           56.69       39.77       -0.65       
N           56.51       41.13       -0.37       
C           57.38       41.85       0.51        
C           61.79       39.0        2.77        
N           61.85       37.57       2.6         
C           60.83       36.78       1.97        
O           62.61       39.7        3.35        
O           61.06       35.59       1.87        
O           55.96       39.15       -1.35       
O           57.21       43.07       0.64        
C           55.52       41.93       -1.2        
C           62.93       36.89       3.23        
H           55.92       42.79       -1.76       
H           55.2        41.21       -1.99       
H           54.61902    42.13633    -0.62227    
H           62.58       35.98       3.82        
H           63.45       37.58       3.96        
H           63.75656    36.69025    2.54809     
H           57.52       37.36       -1.1        
H           61.25       41.55       2.92        
C           60.52       40.99       2.37        
C           58.51       41.11       1.14        
C           59.47       41.76       1.86        
C           59.34       33.14       -0.96       
C           58.02       33.42       -0.78       
S           60.2        34.6        -0.8        
H           56.77       35.03       0.04        
H           57.25       32.71       -0.93       
C           57.77       34.73       -0.32       
C           58.85       35.52       -0.25       
C           60.16       29.44       -1.99       
C           61.17       29.89       -1.22       
S           59.02       30.75       -2.19       
H           61.88       31.87       -0.44       
H           61.9        29.23       -0.77       
C           61.13       31.29       -0.97       
C           59.95       31.89       -1.31       
C           59.33       25.55       -2.27       
C           58.66       26.27       -3.17       
S           60.28       26.72       -1.38       
H           58.36       28.38       -3.96       
H           58.07       25.76       -3.89       
C           58.89       27.7        -3.22       
C           59.76       28.11       -2.27       
C           57.83       19.2        -1.71       
C           58.85       19.84       -2.29       
C           56.83       19.99       -1.16       
C           58.92       21.26       -2.25       
C           57.92       22.04       -1.6        
C           60.0        21.92       -2.84       
C           56.81       21.29       -1.13       
C           55.62       21.93       -0.45       
N           55.75       23.33       -0.39       
C           56.81       24.07       -0.94       
C           61.07       21.23       -3.62       
N           60.82       19.86       -3.83       
C           59.88       19.06       -3.14       
O           62.03       21.84       -4.13       
O           59.9        17.87       -3.22       
O           54.55       21.32       -0.23       
O           56.82       25.28       -0.92       
C           54.65       24.11       0.16        
C           61.54       19.25       -4.9        
H           53.76       24.02       -0.48       
H           54.84       25.18       0.07        
H           54.46505    23.8966     1.21278     
H           61.71       18.16       -4.86       
H           62.61       19.68       -4.95       
H           61.08393    19.36402    -5.88341    
H           56.01       19.48       -0.64       
H           60.92       23.74       -3.35       
C           60.07       23.26       -2.81       
C           58.0        23.45       -1.49       
C           59.12       24.11       -2.09       
C           56.95       15.38       -2.21       
C           57.07       15.52       -0.88       
S           57.19       16.84       -3.17       
H           57.79       17.25       0.39        
H           56.84       14.79       -0.08       
C           57.48       16.89       -0.59       
C           57.58       17.71       -1.7        
C           55.84       11.96       -3.79       
C           56.83       12.51       -4.57       
S           55.79       12.86       -2.31       
H           57.86       14.53       -4.88       
H           57.38       11.99       -5.33       
C           57.19       13.89       -4.24       
C           56.75       14.18       -2.98       
C           54.58       8.56        -4.95       
C           54.16       8.69        -3.65       
S           55.51       9.96        -5.48       
H           54.15       10.22       -2.11       
H           53.44       8.03        -3.17       
C           54.61       9.88        -3.06       
C           55.37       10.61       -3.87       
C           51.92       3.31        -7.93       
C           53.27       3.65        -7.68       
C           50.92       4.21        -7.63       
C           53.57       4.87        -7.05       
C           52.55       5.79        -6.68       
C           54.87       5.28        -6.79       
C           51.24       5.36        -7.0        
C           50.01       6.01        -6.52       
N           50.31       7.31        -5.97       
C           51.59       7.83        -5.59       
C           56.09       4.56        -7.18       
N           55.82       3.3         -7.83       
C           54.47       2.88        -8.13       
O           57.19       5.01        -7.04       
O           54.33       1.75        -8.57       
O           48.86       5.61        -6.56       
O           51.63       8.93        -5.0        
C           49.26       8.32        -6.17       
C           56.85       2.71        -8.68       
H           49.42       9.14        -5.49       
H           48.3        7.88        -5.84       
H           49.20381    8.68523     -7.19545    
H           56.79       1.62        -8.57       
H           57.88       2.94        -8.38       
H           56.69757    3.00101     -9.71932    
H           49.92       4.12        -7.82       
H           56.08       6.88        -6.12       
C           55.05       6.58        -6.33       
C           52.77       7.02        -6.02       
C           54.04       7.42        -5.83       
C           50.57       0.93        -10.75      
C           49.66       0.96        -9.77       
S           51.95       1.85        -10.41      
H           49.63       1.69        -7.71       
H           48.65       0.51        -9.85       
C           50.13       1.68        -8.61       
C           51.3        2.25        -8.82       
C           50.87       -1.03       -14.1       
C           49.58       -0.8        -13.83      
S           51.86       -0.18       -12.91      
H           48.3        0.37        -12.33      
H           48.74       -1.09       -14.46      
C           49.33       -0.07       -12.63      
C           50.48       0.21        -11.93      
C           51.65       -3.34       -17.12      
C           52.87       -3.15       -16.43      
S           50.39       -2.47       -16.34      
H           53.5        -2.3        -14.51      
H           53.81       -3.51       -16.73      
C           52.68       -2.45       -15.23      
C           51.47       -1.79       -15.14      
C           52.28       -6.9        -22.63      
C           51.71       -5.65       -22.37      
C           52.75       -7.66       -21.56      
C           51.75       -5.12       -21.01      
C           52.21       -5.91       -19.92      
C           51.18       -3.86       -20.69      
C           52.61       -7.24       -20.22      
C           52.97       -8.26       -19.2       
N           53.09       -7.76       -17.89      
C           52.7        -6.44       -17.55      
C           50.66       -2.95       -21.75      
N           50.62       -3.52       -23.02      
C           50.98       -4.86       -23.43      
O           50.17       -1.85       -21.4       
O           50.74       -5.3        -24.54      
O           53.22       -9.41       -19.48      
O           52.57       -6.12       -16.39      
C           53.82       -8.57       -16.89      
C           50.44       -2.58       -24.09      
H           53.47       -9.6        -16.86      
H           53.64       -8.23       -15.91      
H           54.89628    -8.54862    -17.06106   
H           51.12       -2.89       -24.93      
H           50.8        -1.56       -23.9       
H           49.39118    -2.53006    -24.38253   
H           53.2        -8.65       -21.81      
H           50.62       -2.54       -19.12      
C           51.05       -3.48       -19.37      
C           52.16       -5.48       -18.57      
C           51.62       -4.21       -18.33      
C           54.36       -7.19       -25.78      
C           53.91       -8.46       -25.56      
S           53.88       -5.96       -24.64      
H           52.64       -9.34       -23.95      
H           54.16       -9.28       -26.2       
C           53.08       -8.45       -24.38      
C           52.94       -7.19       -23.87      
C           57.12       -4.98       -27.46      
C           56.91       -6.03       -28.34      
S           56.13       -5.11       -26.05      
H           55.71       -7.97       -28.26      
H           57.28       -6.04       -29.32      
C           55.96       -7.01       -27.8       
C           55.39       -6.58       -26.62      
C           59.73       -2.09       -28.28      
C           59.49       -2.13       -26.92      
S           58.88       -3.42       -29.03      
H           58.24       -3.4        -25.6       
H           59.95       -1.46       -26.21      
C           58.65       -3.23       -26.55      
C           58.15       -3.98       -27.56      
C           64.38       2.19        -30.06      
C           63.1        1.95        -30.55      
C           64.8        1.48        -29.02      
C           62.39       0.82        -30.05      
C           62.88       0.06        -29.01      
C           61.12       0.46        -30.54      
C           64.16       0.41        -28.48      
C           64.83       -0.23       -27.36      
N           64.08       -1.31       -26.79      
C           62.79       -1.78       -27.22      
C           60.44       1.27        -31.53      
N           61.11       2.36        -31.99      
C           62.36       2.79        -31.54      
O           59.41       0.9         -32.02      
O           62.76       3.84        -31.99      
O           65.97       0.05        -27.06      
O           62.37       -2.82       -26.76      
C           64.86       -2.1        -25.82      
C           60.51       3.08        -33.17      
H           65.93       -2.24       -26.06      
H           64.57       -3.13       -25.86      
H           64.73252    -1.68214    -24.82138   
H           60.61       4.15        -33.06      
H           59.41       2.93        -33.14      
H           60.86792    2.694       -34.12446   
H           65.87       1.74        -28.78      
H           59.44       -0.77       -30.34      
C           60.42       -0.58       -29.94      
C           62.13       -1.04       -28.36      
C           60.85       -1.27       -28.82      
C           67.52       4.6         -30.81      
C           66.93       4.18        -31.97      
S           66.52       3.98        -29.5       
H           65.24       2.9         -32.65      
H           67.32       4.38        -32.99      
C           65.75       3.37        -31.81      
C           65.4        3.08        -30.51      
C           70.8        6.46        -29.96      
C           69.77       7.15        -29.34      
S           70.22       5.16        -30.98      
H           67.56       6.65        -29.17      
H           69.86       8.12        -28.81      
C           68.58       6.49        -29.61      
C           68.62       5.43        -30.41      
C           74.34       7.84        -29.39      
C           74.42       7.0         -30.47      
S           72.74       7.85        -28.78      
H           73.05       5.82        -31.69      
H           75.32       6.75        -31.04      
C           73.19       6.45        -30.87      
C           72.16       6.8         -30.0       
C           79.54       10.36       -26.17      
C           78.55       9.38        -25.75      
C           79.5        10.8        -27.43      
C           77.6        9.0         -26.7       
C           77.56       9.48        -28.09      
C           76.64       8.05        -26.44      
C           78.57       10.47       -28.36      
C           78.52       11.22       -29.59      
N           77.54       10.95       -30.54      
C           76.56       9.99        -30.26      
C           76.5        7.41        -25.12      
N           77.44       7.78        -24.12      
C           78.44       8.66        -24.42      
O           75.51       6.62        -24.87      
O           79.27       8.81        -23.58      
O           79.09       12.29       -29.59      
O           75.75       9.82        -31.16      
C           77.29       11.96       -31.6       
C           77.16       7.48        -22.68      
H           77.7        12.99       -31.28      
H           76.3        12.08       -31.87      
H           77.83834    11.67101    -32.49661   
H           78.08       7.3         -22.16      
H           76.56       6.63        -22.54      
H           76.56149    8.27567     -22.23639   
H           80.31       11.48       -27.69      
H           74.88       7.02        -27.14      
C           75.67       7.72        -27.4       
C           76.52       9.25        -28.97      
C           75.49       8.37        -28.65      
C           81.73       12.49       -23.58      
C           82.47       12.15       -24.73      
S           80.11       11.91       -23.84      
H           82.19       11.07       -26.61      
H           83.54       12.49       -24.88      
C           81.77       11.39       -25.68      
C           80.5        11.1        -25.33      
C           83.45       14.54       -20.62      
C           82.38       13.8        -20.08      
S           83.45       14.31       -22.36      
H           80.95       12.26       -20.84      
H           82.18       13.72       -18.95      
C           81.71       13.01       -21.11      
C           82.14       13.16       -22.39      
C           86.23       16.97       -19.33      
C           85.27       16.9        -18.41      
S           85.84       15.9        -20.66      
H           83.29       15.91       -18.13      
H           85.42       17.35       -17.41      
C           84.2        15.99       -18.72      
C           84.36       15.42       -19.97      
C           91.41       21.12       -19.07      
C           90.01       21.34       -18.95      
C           91.86       19.85       -19.35      
C           89.13       20.17       -19.03      
C           89.62       18.88       -19.32      
C           87.74       20.27       -18.88      
C           91.03       18.79       -19.45      
C           91.63       17.47       -19.62      
N           90.78       16.39       -19.79      
C           89.41       16.46       -19.63      
C           87.09       21.6        -18.84      
N           87.95       22.69       -18.78      
C           89.35       22.63       -18.72      
O           85.85       21.78       -18.92      
O           89.95       23.5        -18.19      
O           92.84       17.37       -19.57      
O           88.73       15.47       -19.73      
C           91.44       15.09       -19.46      
C           87.43       24.0        -19.22      
H           90.76       14.29       -19.16      
H           92.07       15.25       -18.61      
H           92.01284    14.64446    -20.27329   
H           87.69       24.72       -18.53      
H           86.31       24.04       -19.23      
H           87.78445    24.15507    -20.23903   
H           92.94       19.7        -19.31      
H           85.84       19.45       -19.02      
C           86.92       19.23       -19.12      
C           88.75       17.75       -19.45      
C           87.38       17.93       -19.3       
C           94.69       23.23       -18.99      
C           93.7        24.0        -19.53      
S           93.93       21.86       -18.22      
H           91.61       23.74       -20.3       
H           93.92       24.94       -20.02      
C           92.47       23.3        -19.76      
C           92.5        22.04       -19.17      
C           98.14       24.77       -18.2       
C           98.2        23.4        -17.98      
S           96.59       25.18       -18.83      
H           96.8        21.67       -18.0       
H           99.06       22.93       -17.65      
C           96.98       22.76       -18.2       
C           96.04       23.57       -18.72      
C           101.61      26.41       -17.49      
C           100.87      27.25       -18.25      
S           100.59      25.08       -17.09      
H           98.9        27.32       -19.33      
H           101.29      28.25       -18.62      
C           99.56       26.79       -18.63      
C           99.23       25.62       -18.05      
C           107.18      28.15       -14.54      
C           105.97      28.74       -14.68      
C           107.45      26.97       -15.21      
C           104.98      28.16       -15.53      
C           105.19      26.91       -16.18      
C           103.67      28.71       -15.61      
C           106.45      26.3        -15.96      
C           106.83      25.03       -16.66      
N           105.83      24.44       -17.41      
C           104.54      25.01       -17.64      
C           103.27      29.9        -14.83      
N           104.32      30.44       -14.08      
C           105.61      29.94       -13.9       
O           102.15      30.33       -14.82      
O           106.25      30.43       -12.98      
O           107.94      24.61       -16.53      
O           103.71      24.28       -18.16      
C           106.31      23.26       -18.18      
C           104.26      31.86       -13.75      
H           107.27      23.44       -18.69      
H           105.53      23.02       -18.93      
H           106.29612   22.34364    -17.58992   
H           104.69      32.07       -12.82      
H           103.22      32.26       -13.69      
H           104.7365    32.4005     -14.56787   
H           108.42      26.44       -15.13      
H           101.63      28.37       -16.14      
C           102.71      28.03       -16.34      
C           104.18      26.26       -16.95      
C           102.89      26.8        -16.99      
C           110.4       30.28       -13.95      
C           110.55      29.07       -13.27      
S           108.98      30.34       -14.77      
H           109.22      27.31       -12.7       
H           111.44      28.84       -12.73      
C           109.37      28.22       -13.25      
C           108.46      28.77       -14.1       
C           112.55      33.34       -14.98      
C           113.29      32.56       -14.1       
S           111.0       32.6        -15.22      
H           113.28      30.5        -13.17      
H           114.23      32.84       -13.6       
C           112.73      31.32       -13.73      
C           111.42      31.2        -14.21      
C           113.04      37.16       -16.1       
C           112.3       36.43       -17.0       
S           113.35      36.05       -14.85      
H           111.57      34.34       -17.39      
H           111.94      36.94       -17.92      
C           112.14      35.03       -16.78      
C           112.75      34.62       -15.64      
C           115.05      43.53       -16.57      
C           114.42      42.76       -15.55      
C           115.19      42.9        -17.82      
C           114.24      41.33       -15.73      
C           114.32      40.75       -17.02      
C           113.88      40.46       -14.7       
C           114.82      41.62       -18.0       
C           114.88      41.2        -19.44      
N           114.25      39.97       -19.71      
C           113.79      39.04       -18.78      
C           113.52      40.93       -13.42      
N           113.74      42.27       -13.2       
C           114.19      43.19       -14.12      
O           113.16      40.15       -12.55      
O           114.64      44.23       -13.69      
O           115.32      41.97       -20.3       
O           113.46      37.95       -19.26      
C           113.8       39.84       -21.12      
C           113.14      42.9        -12.02      
H           113.4       38.89       -21.41      
H           114.6       39.93       -21.92      
H           113.02324   40.57361    -21.33577   
H           113.65      43.83       -11.74      
H           113.31      42.17       -11.18      
H           112.07041   43.10407    -12.06926   
H           115.63      43.46       -18.63      
H           113.25      38.57       -14.21      
C           113.59      39.14       -15.01      
C           113.89      39.42       -17.31      
C           113.54      38.55       -16.32      
C           114.83      47.45       -16.98      
C           116.01      47.05       -17.46      
S           114.05      46.1        -16.23      
H           117.16      45.12       -17.75      
H           116.72      47.79       -17.92      
C           116.24      45.62       -17.34      
C           115.24      44.98       -16.7       
C           113.56      51.11       -17.16      
C           113.12      50.56       -15.98      
S           114.49      49.94       -18.04      
H           113.0       48.53       -15.01      
H           112.4       51.08       -15.35      
C           113.41      49.18       -15.79      
C           114.24      48.77       -16.81      
C           113.43      54.7        -18.75      
C           113.4       54.79       -17.35      
S           113.47      53.03       -19.2       
H           113.26      53.52       -15.68      
H           113.57      55.76       -16.89      
C           113.3       53.53       -16.73      
C           113.41      52.48       -17.53      
C           113.85      60.44       -22.08      
C           114.54      59.26       -22.1       
C           112.87      60.43       -21.11      
C           114.2       58.19       -21.22      
C           113.1       58.19       -20.32      
C           114.94      56.96       -21.29      
C           112.42      59.43       -20.3       
C           111.3       59.71       -19.41      
N           110.9       58.59       -18.59      
C           111.54      57.3        -18.64      
C           116.13      56.78       -22.13      
N           116.4       57.87       -23.01      
C           115.66      59.06       -23.06      
O           116.79      55.73       -22.2       
O           116.05      59.92       -23.84      
O           110.64      60.7        -19.41      
O           111.1       56.48       -17.87      
C           109.42      58.44       -18.43      
C           117.79      57.94       -23.59      
H           109.06      57.43       -18.55      
H           108.89      59.05       -19.27      
H           109.10505   58.77642    -17.44221   
H           117.82      58.57       -24.51      
H           118.03      56.93       -24.05      
H           118.50993   58.27173    -22.84184   
H           112.31      61.33       -21.02      
H           115.16      54.93       -20.54      
C           114.56      55.85       -20.5       
C           112.73      57.06       -19.52      
C           113.47      55.89       -19.58      
C           114.07      63.53       -24.55      
C           114.89      63.84       -23.45      
S           113.5       61.92       -24.53      
H           115.38      62.76       -21.51      
H           115.29      64.83       -23.25      
C           114.82      62.75       -22.48      
C           114.09      61.66       -22.86      
C           113.96      66.34       -27.26      
C           113.04      65.31       -27.66      
S           114.79      65.87       -25.8       
H           112.26      63.46       -26.72      
H           112.48      65.27       -28.6       
C           113.01      64.19       -26.75      
C           113.85      64.36       -25.65      
H           58.95       46.35       3.73        
H           113.98      67.3        -27.74      
