512

C           81.06       28.17       36.33       
C           81.73       28.18       37.46       
S           82.05       28.67       34.98       
H           83.78       28.51       38.09       
H           81.32       27.92       38.38       
C           83.07       28.52       37.28       
C           83.41       28.83       35.99       
C           76.23       24.56       33.71       
C           77.11       24.34       34.77       
C           76.04       25.93       33.28       
C           77.95       25.42       35.22       
C           77.86       26.73       34.74       
C           78.94       25.18       36.26       
C           76.84       26.98       33.76       
C           76.59       28.36       33.32       
N           77.38       29.4        33.95       
C           78.53       29.14       34.73       
C           79.02       23.88       36.97       
N           78.14       22.89       36.57       
C           77.25       23.03       35.56       
O           79.91       23.8        37.89       
O           76.42       22.15       35.36       
O           75.72       28.65       32.49       
O           79.11       30.07       35.1        
C           76.62       30.66       34.1        
C           77.8        21.91       37.63       
H           77.31       31.48       34.2        
H           76.28       30.99       33.16       
H           75.84894    30.56005    34.86392    
H           76.67       21.77       37.66       
H           78.04       22.46       38.62       
H           78.33411    20.96447    37.53617    
H           75.18       26.15       32.67       
H           80.65       25.91       37.21       
C           79.77       26.15       36.62       
C           78.74       27.71       35.22       
C           79.76       27.42       36.1        
C           73.24       22.39       32.21       
C           74.42       21.68       32.07       
S           73.59       23.86       33.04       
H           76.57       21.89       32.59       
H           74.48       20.68       31.65       
C           75.61       22.39       32.51       
C           75.3        23.65       33.01       
C           69.36       21.99       32.16       
C           69.89       21.12       31.29       
S           70.64       22.98       32.84       
H           71.95       20.35       30.74       
H           69.26       20.45       30.66       
C           71.34       21.01       31.32       
C           71.84       22.03       32.06       
C           65.63       21.76       33.23       
C           66.14       22.92       33.79       
S           66.8        21.0        32.23       
H           68.07       24.04       33.72       
H           65.51       23.57       34.49       
C           67.51       23.16       33.47       
C           68.01       22.18       32.66       
C           59.83       19.65       35.52       
C           61.14       19.15       35.59       
C           59.67       20.91       34.94       
C           62.2        19.89       34.96       
C           61.94       21.1        34.23       
C           63.46       19.31       34.8        
C           60.62       21.62       34.27       
C           60.24       22.93       33.64       
N           61.33       23.58       32.96       
C           62.68       23.16       32.89       
C           63.75       17.98       35.42       
N           62.78       17.34       36.2        
C           61.49       17.81       36.2        
O           64.89       17.5        35.3        
O           60.64       17.11       36.74       
O           59.04       23.41       33.74       
O           63.55       23.89       32.47       
C           61.05       24.93       32.3        
C           62.84       15.9        36.28       
H           61.92       25.34       31.83       
H           60.86       25.62       33.11       
H           60.26901    24.97379    31.5409     
H           62.18       15.5        37.02       
H           63.82       15.59       36.63       
H           62.74927    15.42543    35.30294    
H           58.7        21.3        34.85       
H           65.44       19.62       34.24       
C           64.46       20.06       34.18       
C           63.0        21.83       33.57       
C           64.32       21.31       33.56       
C           56.47       18.56       37.3        
C           56.93       17.5        36.62       
S           57.5        19.93       37.11       
H           58.49       17.11       35.12       
H           56.39       16.58       36.7        
C           58.04       17.79       35.79       
C           58.55       19.08       36.02       
C           52.76       18.82       38.5        
C           53.5        19.56       39.36       
S           53.73       18.15       37.3        
H           55.66       19.8        39.83       
H           53.06       20.07       40.18       
C           54.93       19.45       39.17       
C           55.27       18.73       38.03       
C           49.11       17.47       37.77       
C           48.99       18.51       38.7        
S           50.83       17.14       37.58       
H           50.32       19.85       39.91       
H           48.1        18.97       39.0        
C           50.26       19.1        39.09       
C           51.36       18.5        38.53       
C           44.09       14.55       34.82       
C           44.47       14.74       36.19       
C           44.91       15.1        33.85       
C           45.64       15.4        36.5        
C           46.44       15.93       35.45       
C           46.04       15.53       37.81       
C           46.02       15.83       34.13       
C           46.83       16.39       32.99       
N           47.9        17.24       33.26       
C           48.27       17.44       34.64       
C           45.29       15.0        38.96       
N           44.03       14.51       38.67       
C           43.49       14.39       37.35       
O           45.62       15.22       40.15       
O           42.28       14.14       37.16       
O           46.55       16.23       31.83       
O           49.28       18.18       34.88       
C           48.81       17.65       32.18       
C           43.15       13.99       39.75       
H           48.88       16.86       31.46       
H           49.86       17.77       32.64       
H           48.50864    18.56126    31.66338    
H           42.08       14.15       39.47       
H           43.48       14.52       40.66       
H           43.35497    12.92979    39.89843    
H           44.82       14.84       32.84       
H           47.47       16.24       39.12       
C           47.17       16.29       38.1        
C           47.57       16.75       35.73       
C           47.97       16.91       37.09       
C           41.29       12.47       32.91       
C           42.03       11.7        33.74       
S           41.92       14.03       33.01       
H           43.59       11.82       35.26       
H           41.93       10.61       33.61       
C           42.99       12.38       34.51       
C           43.12       13.69       34.25       
C           39.33       10.76       30.06       
C           38.95       12.04       30.04       
S           40.46       10.43       31.33       
H           39.41       13.88       31.14       
H           38.21       12.4        29.3        
C           39.58       12.81       31.08       
C           40.38       12.08       31.85       
C           39.41       7.64        27.77       
C           38.31       8.41        27.43       
S           40.16       8.42        29.09       
H           37.2        10.32       28.04       
H           37.73       8.24        26.57       
C           38.05       9.62        28.21       
C           39.01       9.72        29.13       
C           42.32       2.51        24.76       
C           41.92       3.79        24.29       
C           42.05       2.24        26.1        
C           41.3        4.71        25.22       
C           41.0        4.35        26.55       
C           40.95       6.02        24.87       
C           41.51       3.13        26.98       
C           41.04       2.56        28.24       
N           40.15       3.3         29.06       
C           39.99       4.63        28.87       
C           41.12       6.52        23.5        
N           41.73       5.6         22.59       
C           42.13       4.28        22.94       
O           40.71       7.6         23.07       
O           42.67       3.53        22.1        
O           41.31       1.34        28.35       
O           39.28       5.29        29.71       
C           39.41       2.69        30.26       
C           41.88       6.05        21.2        
H           38.45       3.1         30.44       
H           39.97       2.86        31.16       
H           39.08268    1.65823     30.13192    
H           42.8        5.56        20.85       
H           41.94       7.11        21.07       
H           41.01004    5.80245     20.59173    
H           42.46       1.35        26.44       
H           39.93       7.84        25.43       
C           40.34       6.88        25.81       
C           40.31       5.16        27.47       
C           39.92       6.44        27.08       
C           45.1        0.32        23.09       
C           43.98       -0.48       23.27       
S           44.86       1.91        23.65       
H           42.04       -0.26       24.36       
H           43.99       -1.47       22.81       
C           43.0        0.15        24.07       
C           43.22       1.51        24.13       
C           48.72       0.06        21.69       
C           48.05       -1.05       21.26       
S           47.67       1.16        22.52       
H           46.1        -1.8        21.36       
H           48.37       -1.95       20.78       
C           46.72       -1.04       21.69       
C           46.33       0.08        22.37       
C           52.62       0.0         21.73       
C           52.24       1.33        21.65       
S           51.26       -1.03       21.84       
H           50.35       2.48        21.72       
H           52.84       2.21        21.63       
C           50.81       1.47        21.75       
C           50.1        0.28        21.64       
C           58.75       -2.2        20.58       
C           57.95       -1.29       19.85       
C           58.42       -2.58       21.86       
C           56.71       -0.96       20.41       
C           56.33       -1.38       21.74       
C           55.71       -0.22       19.73       
C           57.24       -2.24       22.46       
C           56.94       -2.76       23.83       
N           55.7        -2.34       24.4        
C           54.76       -1.49       23.71       
C           56.07       0.52        18.48       
N           57.27       0.13        17.91       
C           58.26       -0.7        18.51       
O           55.21       1.16        17.84       
O           59.4        -0.85       17.92       
O           57.74       -3.38       24.49       
O           53.76       -1.19       24.31       
C           55.22       -3.03       25.58       
C           57.49       0.64        16.55       
H           55.69       -3.97       25.81       
H           54.2        -3.35       25.35       
H           55.34224    -2.44757    26.4932     
H           58.51       0.9         16.34       
H           57.05       1.6         16.39       
H           57.17724    -0.06711    15.7817     
H           59.08       -3.25       22.35       
H           53.8        0.66        19.62       
C           54.48       0.06        20.26       
C           55.03       -1.08       22.28       
C           54.05       -0.38       21.53       
C           62.28       -3.77       19.75       
C           61.27       -4.48       19.2        
S           61.52       -2.54       20.77       
H           59.03       -4.39       19.0        
H           61.48       -5.35       18.62       
C           59.95       -3.95       19.37       
C           59.91       -2.91       20.24       
C           65.99       -5.01       19.41       
C           65.98       -3.8        19.99       
S           64.33       -5.57       19.13       
H           64.59       -2.36       20.66       
H           66.92       -3.18       20.16       
C           64.71       -3.37       20.35       
C           63.68       -4.08       19.83       
C           69.62       -6.18       18.71       
C           68.82       -6.79       17.82       
S           68.68       -5.03       19.59       
H           66.61       -7.06       17.34       
H           69.2        -7.39       17.01       
C           67.42       -6.58       17.94       
C           67.2        -5.65       18.92       
C           76.18       -6.89       18.15       
C           75.23       -7.08       19.16       
C           75.65       -6.79       16.86       
C           73.85       -6.85       19.02       
C           73.35       -6.64       17.7        
C           72.97       -6.79       20.1        
C           74.27       -6.64       16.65       
C           73.9        -6.46       15.24       
N           72.58       -6.36       15.0        
C           71.61       -6.23       16.03       
C           73.48       -6.87       21.47       
N           74.85       -7.19       21.65       
C           75.67       -7.41       20.6        
O           72.75       -6.84       22.4        
O           76.78       -7.86       20.86       
O           74.69       -6.37       14.34       
O           70.49       -5.79       15.65       
C           72.19       -5.84       13.67       
C           75.47       -7.11       23.03       
H           73.01       -5.14       13.31       
H           71.27       -5.22       13.64       
H           72.06844    -6.64086    12.94065    
H           76.47       -7.57       23.06       
H           74.84       -7.62       23.72       
H           75.53359    -6.07841    23.37622    
H           76.35       -6.62       16.05       
H           71.08       -6.3        20.8        
C           71.67       -6.44       19.89       
C           72.0        -6.33       17.5        
C           71.11       -6.25       18.6        
C           80.0        -6.3        18.71       
C           79.87       -7.29       17.81       
S           78.51       -5.54       18.84       
H           78.16       -8.39       16.91       
H           80.78       -7.77       17.45       
C           78.47       -7.56       17.49       
C           77.63       -6.84       18.25       
C           83.62       -5.27       20.05       
C           82.73       -5.16       21.09       
S           82.78       -5.85       18.6        
H           80.5        -5.37       21.33       
H           83.03       -4.76       22.08       
C           81.38       -5.45       20.71       
C           81.21       -5.86       19.4        
C           87.26       -3.88       20.05       
C           87.15       -5.02       19.39       
S           85.72       -3.47       20.72       
H           85.75       -6.54       18.79       
H           88.05       -5.39       18.85       
C           85.88       -5.55       19.24       
C           84.95       -4.82       19.94       
C           92.77       -0.32       20.57       
C           92.27       -1.41       21.29       
C           91.97       0.23        19.55       
C           91.01       -1.93       20.95       
C           90.19       -1.39       19.92       
C           90.53       -3.07       21.67       
C           90.72       -0.33       19.18       
C           89.98       0.27        17.95       
N           88.73       -0.36       17.66       
C           88.27       -1.48       18.41       
C           91.19       -3.75       22.8        
N           92.46       -3.23       23.06       
C           93.0        -2.14       22.41       
O           90.69       -4.74       23.24       
O           94.21       -2.04       22.51       
O           90.64       1.08        17.26       
O           87.18       -1.88       18.07       
C           87.77       0.13        16.61       
C           92.9        -3.46       24.44       
H           87.02       0.74        17.13       
H           87.31       -0.67       16.1        
H           88.21754    0.82928     15.90373    
H           93.97       -3.49       24.41       
H           92.62       -4.44       24.82       
H           92.59099    -2.66232    25.11551    
H           92.3        1.12        19.01       
H           88.95       -4.33       21.98       
C           89.3        -3.6        21.26       
C           89.01       -2.07       19.57       
C           88.5        -3.12       20.27       
C           96.15       1.71        20.84       
C           95.54       1.7         22.02       
S           95.28       0.64        19.73       
H           93.62       1.09        23.0        
H           95.93       2.26        22.87       
C           94.29       1.06        22.07       
C           93.95       0.53        20.81       
C           99.27       3.89        19.65       
C           99.2        2.75        18.91       
S           97.83       3.98        20.69       
H           98.05       0.95        18.91       
H           99.88       2.52        18.12       
C           98.18       1.87        19.36       
C           97.36       2.33        20.37       
C           100.9       7.31        19.85       
C           101.65      6.58        18.97       
S           99.56       6.36        20.37       
H           101.78      4.46        18.31       
H           102.37      7.0         18.26       
C           101.29      5.19        18.92       
C           100.1       5.02        19.48       
C           102.71      13.71       19.73       
C           101.44      13.08       19.74       
C           103.81      12.85       19.63       
C           101.38      11.64       19.89       
C           102.52      10.76       19.94       
C           100.13      10.91       19.99       
C           103.7       11.47       19.72       
C           105.03      10.78       19.61       
N           105.1       9.4         19.87       
C           103.88      8.65        20.06       
C           98.81       11.61       19.86       
N           98.86       13.02       19.7        
C           100.11      13.75       19.79       
O           97.74       11.03       19.68       
O           99.94       14.96       19.92       
O           106.1       11.38       19.51       
O           103.89      7.48        20.34       
C           106.21      8.59        19.31       
C           97.6        13.83       19.81       
H           106.46      8.79        18.31       
H           105.93      7.55        19.29       
H           107.08646   8.73725     19.94105    
H           97.62       14.66       20.58       
H           96.84       13.1        20.19       
H           97.34658    14.2572     18.83975    
H           104.81      13.3        19.37       
H           99.18       9.02        20.13       
C           100.16      9.54        20.14       
C           102.56      9.37        19.98       
C           101.33      8.71        20.14       
C           104.33      17.34       19.19       
C           103.07      17.31       18.56       
S           104.53      15.76       20.02       
H           101.42      15.86       18.18       
H           102.7       18.11       17.93       
C           102.34      16.1        18.73       
C           103.13      15.09       19.37       
C           106.56      20.61       18.68       
C           107.38      19.56       19.09       
S           104.96      20.12       18.95       
H           107.24      17.48       19.68       
H           108.41      19.45       18.91       
C           106.68      18.38       19.45       
C           105.36      18.41       19.21       
C           107.97      24.04       17.78       
C           106.71      24.24       18.31       
S           108.25      22.39       17.46       
H           105.02      22.98       19.16       
H           106.3       25.18       18.54       
C           106.0       23.06       18.65       
C           106.81      21.98       18.4        
C           111.63      29.59       17.95       
C           111.89      28.28       18.23       
C           110.45      29.85       17.31       
C           111.0       27.24       17.88       
C           109.75      27.51       17.23       
C           111.2       25.83       18.11       
C           109.57      28.86       16.96       
C           108.36      29.35       16.22       
N           107.46      28.32       15.85       
C           107.55      26.97       16.26       
C           112.5       25.4        18.64       
N           113.44      26.39       19.05       
C           113.19      27.79       18.85       
O           112.7       24.19       18.81       
O           114.21      28.43       18.99       
O           108.1       30.57       16.16       
O           106.81      26.19       15.77       
C           106.23      28.61       15.09       
C           114.7       25.97       19.63       
H           105.5       29.13       15.64       
H           105.72      27.74       14.86       
H           106.43926   29.03574    14.10864    
H           115.51      26.42       19.15       
H           114.87      24.9        19.32       
H           114.69299   25.89284    20.71724    
H           110.17      30.88       17.32       
H           110.39      23.86       18.28       
C           110.22      24.83       17.87       
C           108.76      26.52       17.0        
C           108.9       25.22       17.47       
C           113.64      32.67       19.48       
C           113.25      32.99       18.23       
S           113.21      31.02       19.84       
H           112.28      32.0        16.61       
H           113.18      34.02       17.87       
C           112.57      31.91       17.62       
C           112.45      30.77       18.33       
C           115.31      35.26       21.89       
C           115.17      34.09       22.54       
S           114.87      35.06       20.23       
H           114.46      32.07       22.18       
H           115.5       33.93       23.54       
C           114.57      33.06       21.75       
C           114.27      33.47       20.5        
C           116.43      38.81       22.73       
C           117.32      37.97       23.29       
S           115.27      37.87       21.88       
H           117.59      35.74       23.55       
H           118.22      38.32       23.9        
C           117.01      36.59       23.18       
C           115.94      36.43       22.37       
C           116.23      45.46       22.68       
C           117.19      44.56       22.12       
C           115.11      44.97       23.27       
C           116.98      43.18       22.36       
C           115.82      42.63       23.0        
C           117.88      42.22       21.84       
C           114.92      43.62       23.45       
C           113.59      43.29       24.05       
N           113.34      41.89       24.19       
C           114.24      40.93       23.74       
C           119.04      42.56       21.06       
N           119.19      43.95       20.85       
C           118.36      44.95       21.25       
O           119.82      41.7        20.67       
O           118.61      46.09       21.08       
O           112.82      44.22       24.27       
O           113.8       39.77       23.85       
C           111.95      41.4        24.44       
C           120.51      44.36       20.43       
H           111.76      40.37       24.37       
H           111.31      41.69       23.54       
H           111.53808   41.70021    25.40348    
H           120.54      45.4        20.03       
H           120.83      43.64       19.71       
H           121.28232   44.28415    21.19542    
H           114.44      45.72       23.63       
H           118.37      40.18       21.8        
C           117.68      40.87       22.14       
C           115.54      41.26       23.17       
C           116.55      40.33       22.75       
C           116.84      49.28       23.64       
C           116.23      49.21       22.48       
S           117.2       47.7        24.28       
H           115.39      47.51       21.17       
H           115.87      50.1        21.95       
C           115.83      47.86       22.05       
C           116.41      46.95       22.87       
C           117.8       52.13       26.09       
C           117.8       52.64       24.82       
S           117.25      50.55       26.07       
H           117.64      51.9        22.81       
H           118.22      53.67       24.59       
C           117.52      51.68       23.87       
C           117.23      50.45       24.34       
H           84.17       29.6        35.83       
H           117.98      52.65       27.03       
