512

C           38.39       39.65       11.64       
C           39.15       39.68       12.79       
S           37.33       41.05       11.56       
H           39.46       40.94       14.49       
H           39.94       38.99       13.2        
C           38.86       40.82       13.62       
C           37.8        41.61       13.13       
C           38.57       35.06       6.88        
C           38.19       35.08       8.25        
C           39.03       36.34       6.33        
C           38.38       36.28       9.01        
C           38.93       37.51       8.52        
C           38.05       36.23       10.43       
C           39.21       37.47       7.15        
C           39.53       38.73       6.44        
N           39.7        39.87       7.25        
C           39.58       39.91       8.66        
C           37.41       35.05       11.17       
N           37.33       33.89       10.33       
C           37.7        33.88       8.99        
O           37.11       34.98       12.41       
O           37.36       32.88       8.37        
O           39.51       38.86       5.24        
O           39.81       40.96       9.14        
C           40.42       41.02       6.61        
C           36.78       32.63       10.84       
H           40.99       41.65       7.28        
H           41.18       40.67       5.96        
H           39.77044    41.66265    6.01572     
H           35.96       32.24       10.15       
H           36.48       32.85       11.86       
H           37.54538    31.87145    11.00401    
H           39.33       36.35       5.3         
H           37.8        37.25       12.15       
C           38.14       37.35       11.17       
C           39.03       38.69       9.36        
C           38.62       38.59       10.68       
C           39.52       31.65       5.19        
C           38.87       32.38       4.26        
S           39.75       32.57       6.64        
H           37.89       34.33       4.31        
H           38.54       32.15       3.24        
C           38.55       33.7        4.82        
C           38.82       33.85       6.1         
C           40.8        28.09       4.34        
C           40.49       28.11       5.69        
S           40.69       29.73       3.7         
H           39.69       29.62       7.14        
H           40.73       27.27       6.34        
C           39.96       29.36       6.12        
C           39.94       30.28       5.15        
C           42.25       24.79       2.87        
C           42.4        25.79       1.96        
S           41.45       25.48       4.24        
H           42.48       27.99       1.91        
H           42.76       25.64       1.0         
C           42.08       27.09       2.43        
C           41.47       27.06       3.61        
C           42.86       18.33       1.44        
C           41.77       19.22       1.34        
C           44.07       18.91       1.75        
C           41.93       20.59       1.67        
C           43.14       21.1        2.19        
C           40.83       21.49       1.57        
C           44.23       20.22       2.18        
C           45.61       20.6        2.64        
N           45.75       21.93       2.98        
C           44.63       22.82       3.01        
C           39.48       21.12       1.04        
N           39.31       19.78       0.79        
C           40.33       18.82       1.02        
O           38.58       21.96       0.86        
O           40.03       17.67       0.79        
O           46.58       19.8        2.63        
O           44.86       23.91       3.27        
C           47.09       22.47       3.15        
C           38.05       19.31       0.19        
H           47.57       21.81       3.86        
H           47.07       23.45       3.61        
H           47.63312    22.56748    2.20999     
H           38.24       18.58       -0.53       
H           37.63       20.18       -0.32       
H           37.2775     19.04777    0.91289     
H           44.93       18.25       1.8         
H           40.18       23.51       1.91        
C           41.01       22.84       1.98        
C           43.25       22.45       2.58        
C           42.21       23.34       2.51        
C           43.34       14.58       2.07        
C           43.39       14.7        0.69        
S           42.66       15.99       2.87        
H           43.49       16.47       -0.63       
H           43.86       14.07       -0.09       
C           43.21       16.07       0.36        
C           42.84       16.88       1.41        
C           44.45       11.26       3.83        
C           44.3        12.19       4.82        
S           44.12       11.95       2.24        
H           43.87       14.25       5.01        
H           44.39       11.96       5.87        
C           43.93       13.44       4.31        
C           43.73       13.49       2.99        
C           46.16       7.82        3.18        
C           45.71       7.9         4.46        
S           45.7        9.21        2.29        
H           44.73       9.31        5.81        
H           45.9        7.08        5.15        
C           45.16       9.13        4.86        
C           45.0        9.92        3.77        
C           49.01       2.5         0.46        
C           47.87       2.69        1.29        
C           49.63       3.67        0.02        
C           47.5        3.98        1.72        
C           48.23       5.14        1.35        
C           46.36       4.14        2.61        
C           49.3        4.92        0.48        
C           50.11       6.06        0.03        
N           49.89       7.3         0.68        
C           48.78       7.5         1.55        
C           45.33       3.09        2.89        
N           45.61       1.9         2.19        
C           46.85       1.56        1.55        
O           44.23       3.31        3.48        
O           47.01       0.44        1.22        
O           51.12       5.95        -0.7        
O           48.75       8.62        2.09        
C           50.96       8.28        0.7         
C           44.49       1.02        1.85        
H           51.95       7.85        0.6         
H           50.89       8.79        1.62        
H           50.89656    9.00599     -0.11057    
H           44.82       0.57        0.94        
H           43.52       1.49        1.65        
H           44.33413    0.17691     2.52306     
H           50.46       3.63        -0.74       
H           45.19       5.65        3.73        
C           46.02       5.41        3.01        
C           47.9        6.35        1.93        
C           46.76       6.54        2.68        
C           50.31       -0.41       -1.8        
C           50.44       -0.85       -0.5        
S           49.77       1.26        -1.83       
H           49.76       -0.01       1.5         
H           50.6        -1.9        -0.17       
C           49.87       0.12        0.42        
C           49.61       1.3         -0.17       
C           50.57       -1.62       -5.44       
C           50.24       -2.68       -4.72       
S           50.85       -0.26       -4.43       
H           49.89       -3.15       -2.59       
H           50.06       -3.63       -5.16       
C           50.16       -2.41       -3.32       
C           50.43       -1.15       -2.99       
C           52.25       -0.72       -8.82       
C           51.49       -1.9        -8.97       
S           52.18       -0.26       -7.12       
H           50.09       -3.16       -7.83       
H           51.43       -2.43       -9.86       
C           50.8        -2.38       -7.81       
C           51.01       -1.56       -6.8        
C           56.61       1.05        -13.49      
C           56.62       1.15        -12.15      
C           55.5        0.45        -14.13      
C           55.47       0.7         -11.42      
C           54.27       0.25        -12.04      
C           55.37       0.88        -9.98       
C           54.32       0.15        -13.42      
C           53.27       -0.48       -14.25      
N           52.1        -0.75       -13.53      
C           51.93       -0.65       -12.09      
C           56.48       1.53        -9.23       
N           57.63       1.92        -9.96       
C           57.72       1.82        -11.37      
O           56.42       1.76        -8.01       
O           58.85       2.11        -11.9       
O           53.27       -0.67       -15.48      
O           50.83       -1.03       -11.68      
C           51.08       -1.63       -14.32      
C           58.71       2.48        -9.18       
H           50.51       -2.29       -13.71      
H           51.57       -2.37       -14.88      
H           50.44101    -1.06742    -15.00066   
H           59.64       2.4         -9.71       
H           58.79       1.88        -8.28       
H           58.49511    3.51145     -8.90065    
H           55.45       0.32        -15.22      
H           54.31       0.48        -8.24       
C           54.29       0.39        -9.3        
C           53.18       -0.25       -11.29      
C           53.17       -0.21       -9.89       
C           58.85       2.71        -16.48      
C           59.39       1.49        -16.02      
S           57.36       2.95        -15.51      
H           59.22       -0.03       -14.41      
H           60.29       1.14        -16.43      
C           58.77       0.92        -14.88      
C           57.64       1.52        -14.5       
C           60.63       5.05        -19.13      
C           59.58       5.76        -18.5       
S           60.59       3.36        -18.57      
H           57.96       5.34        -16.97      
H           59.42       6.77        -18.68      
C           58.83       4.98        -17.6       
C           59.33       3.67        -17.43      
C           63.76       5.97        -21.49      
C           62.89       6.97        -21.53      
S           63.16       4.73        -20.36      
H           60.77       7.34        -20.7       
H           62.94       7.83        -22.13      
C           61.66       6.71        -20.76      
C           61.68       5.56        -20.05      
C           68.94       6.7         -25.39      
C           67.72       6.13        -25.61      
C           69.13       7.46        -24.21      
C           66.82       6.03        -24.46      
C           67.06       6.78        -23.32      
C           65.62       5.18        -24.56      
C           68.24       7.48        -23.17      
C           68.61       8.34        -22.0       
N           67.53       8.43        -21.03      
C           66.36       7.64        -21.07      
C           65.32       4.34        -25.71      
N           66.15       4.53        -26.82      
C           67.32       5.33        -26.82      
O           64.21       3.73        -25.73      
O           67.98       5.32        -27.9       
O           69.72       8.87        -21.82      
O           65.69       7.74        -20.18      
C           67.56       9.52        -20.0       
C           65.88       3.69        -27.98      
H           66.55       9.76        -19.68      
H           67.8        10.45       -20.57      
H           68.23421    9.29526     -19.17354   
H           66.05       4.14        -28.93      
H           64.84       3.5         -27.97      
H           66.37738    2.73027     -27.83989   
H           70.01       8.15        -24.1       
H           63.76       4.63        -23.65      
C           64.74       5.18        -23.52      
C           66.17       6.72        -22.26      
C           64.99       5.95        -22.33      
C           72.19       7.88        -27.31      
C           71.16       7.85        -28.24      
S           71.62       7.19        -25.86      
H           68.94       7.51        -28.25      
H           71.39       8.07        -29.31      
C           69.89       7.48        -27.66      
C           69.97       7.2         -26.36      
C           76.2        8.3         -27.18      
C           75.83       8.3         -28.43      
S           74.82       8.05        -26.2       
H           73.99       8.03        -29.63      
H           76.57       8.26        -29.2       
C           74.39       8.16        -28.61      
C           73.64       8.14        -27.51      
C           79.55       8.23        -25.15      
C           79.86       8.3         -26.47      
S           77.82       8.15        -24.98      
H           78.97       8.69        -28.43      
H           80.88       8.32        -26.8       
C           78.73       8.52        -27.38      
C           77.53       8.32        -26.69      
C           83.99       6.87        -20.35      
C           82.76       6.29        -20.71      
C           84.55       7.85        -21.16      
C           82.07       6.88        -21.83      
C           82.61       7.96        -22.59      
C           80.81       6.39        -22.13      
C           83.93       8.4         -22.22      
C           84.61       9.52        -22.99      
N           83.78       10.13       -23.95      
C           82.56       9.66        -24.43      
C           80.1        5.36        -21.38      
N           80.81       4.86        -20.35      
C           82.06       5.26        -19.91      
O           79.01       4.98        -21.78      
O           82.54       4.75        -18.93      
O           85.7        9.96        -22.49      
O           81.94       10.2        -25.37      
C           84.25       11.44       -24.48      
C           80.14       3.81        -19.61      
H           84.41       11.93       -23.48      
H           83.52       11.88       -25.25      
H           85.21873    11.24486    -24.93997   
H           80.91       3.23        -19.12      
H           79.53       3.25        -20.32      
H           79.53866    4.2557      -18.81764   
H           85.51       8.26        -20.92      
H           79.12       6.52        -23.47      
C           80.07       6.97        -23.16      
C           81.9        8.44        -23.76      
C           80.59       7.98        -24.03      
C           86.12       6.04        -17.13      
C           86.06       4.95        -17.97      
S           85.27       7.38        -17.94      
H           85.01       4.46        -19.88      
H           86.46       3.94        -17.61      
C           85.4        5.19        -19.2       
C           84.89       6.44        -19.28      
C           87.84       5.57        -13.62      
C           87.45       6.8         -13.75      
S           87.37       4.64        -15.05      
H           86.5        8.1         -15.29      
H           87.79       7.54        -13.03      
C           86.84       7.17        -15.06      
C           86.7        6.09        -15.8       
C           90.58       4.54        -11.0       
C           90.14       3.4         -11.57      
S           89.7        5.89        -11.63      
H           88.84       2.87        -13.32      
H           90.49       2.44        -11.35      
C           89.08       3.61        -12.61      
C           88.65       4.9         -12.66      
C           95.85       5.61        -7.09       
C           94.5        5.94        -7.02       
C           96.19       4.63        -8.07       
C           93.6        5.56        -8.01       
C           93.96       4.57        -8.94       
C           92.25       6.01        -8.04       
C           95.27       4.07        -8.91       
C           95.85       3.27        -10.04      
N           94.98       2.91        -11.06      
C           93.6        3.27        -11.07      
C           91.62       6.78        -6.98       
N           92.56       7.24        -5.97       
C           94.01       6.91        -6.01       
O           90.42       7.19        -6.99       
O           94.75       7.14        -5.11       
O           97.0        2.91        -10.08      
O           92.86       2.91        -11.98      
C           95.64       2.63        -12.33      
C           92.32       8.56        -5.24       
H           96.62       3.04        -12.26      
H           95.16       3.07        -13.17      
H           95.74178    1.56135     -12.51901   
H           92.85       8.49        -4.29       
H           91.24       8.66        -4.9        
H           92.61536    9.44608     -5.8019     
H           97.24       4.42        -8.26       
H           90.4        5.94        -8.97       
C           91.43       5.61        -9.05       
C           93.08       4.18        -10.03      
C           91.79       4.7         -10.1       
C           98.87       7.91        -6.05       
C           99.11       6.72        -5.57       
S           97.22       7.95        -6.75       
H           98.12       4.61        -5.79       
H           100.02      6.55        -5.01       
C           98.08       5.71        -5.94       
C           96.98       6.26        -6.46       
C           100.58      11.45       -6.66       
C           101.3       10.81       -5.7        
S           99.29       10.41       -7.13       
H           101.37      8.84        -4.72       
H           102.12      11.29       -5.22       
C           100.84      9.53        -5.37       
C           99.72       9.11        -6.08       
C           100.46      14.75       -8.77       
C           101.76      14.62       -8.36       
S           99.5        13.5        -8.2        
H           102.98      13.05       -7.3        
H           102.51      15.41       -8.56       
C           102.0       13.42       -7.65       
C           100.85      12.74       -7.36       
C           98.82       19.85       -12.74      
C           98.78       18.45       -12.87      
C           99.45       20.3        -11.62      
C           99.17       17.57       -11.79      
C           99.74       18.11       -10.6       
C           99.08       16.15       -11.79      
C           99.85       19.55       -10.53      
C           100.63      20.24       -9.51       
N           101.21      19.44       -8.52       
C           100.95      18.04       -8.46       
C           98.53       15.45       -12.99      
N           98.18       16.31       -14.09      
C           98.32       17.71       -14.08      
O           98.42       14.22       -12.94      
O           97.78       18.18       -15.05      
O           100.9       21.45       -9.57       
O           101.46      17.37       -7.58       
C           102.53      19.86       -7.93       
C           98.03       15.7        -15.47      
H           103.2       20.12       -8.77       
H           103.04      19.03       -7.41       
H           102.31707   20.61944    -7.17766    
H           97.06       16.03       -16.0       
H           98.04       14.61       -15.27      
H           98.91004    15.92895    -16.071     
H           99.6        21.43       -11.54      
H           99.49       14.28       -10.82      
C           99.39       15.38       -10.69      
C           100.24      17.28       -9.53       
C           99.99       15.94       -9.53       
C           99.08       22.65       -15.64      
C           98.35       23.18       -14.6       
S           99.36       20.92       -15.35      
H           97.76       22.43       -12.52      
H           98.1        24.21       -14.56      
C           98.17       22.25       -13.5       
C           98.63       20.89       -13.77      
C           99.99       24.75       -18.81      
C           100.02      23.37       -19.17      
S           99.62       24.86       -17.14      
H           99.37       21.45       -18.24      
H           100.29      22.95       -20.13      
C           99.56       22.52       -18.13      
C           99.44       23.15       -16.89      
C           99.54       27.54       -21.53      
C           100.29      28.08       -20.53      
S           99.31       25.85       -21.16      
H           100.92      27.54       -18.41      
H           100.62      29.15       -20.53      
C           100.49      27.24       -19.38      
C           100.08      25.92       -19.63      
C           97.87       31.08       -26.87      
C           98.18       29.76       -26.65      
C           97.74       31.9        -25.78      
C           98.42       29.28       -25.35      
C           98.33       30.16       -24.2       
C           98.75       27.95       -25.14      
C           98.02       31.51       -24.5       
C           97.99       32.53       -23.44      
N           98.05       31.97       -22.08      
C           98.37       30.65       -21.74      
C           98.8        26.99       -26.26      
N           98.48       27.44       -27.55      
C           98.02       28.75       -27.79      
O           99.14       25.8        -25.98      
O           97.63       29.02       -28.89      
O           97.74       33.71       -23.66      
O           98.48       30.34       -20.55      
C           98.43       32.99       -21.1       
C           98.99       26.7        -28.68      
H           99.08       33.62       -21.64      
H           99.0        32.58       -20.26      
H           97.57536    33.52323    -20.68364   
H           98.37       26.92       -29.57      
H           98.74       25.66       -28.36      
H           100.0411    26.89306    -28.89451   
H           97.59       32.97       -25.88      
H           99.52       26.56       -23.82      
C           99.1        27.53       -23.88      
C           98.62       29.64       -22.89      
C           99.05       28.32       -22.68      
C           98.44       32.98       -30.27      
C           97.41       33.54       -29.56      
S           99.09       31.7        -29.35      
H           96.21       33.09       -27.66      
H           97.03       34.49       -29.88      
C           97.01       32.81       -28.39      
C           97.81       31.76       -28.14      
C           100.74      33.85       -33.13      
C           100.07      34.99       -32.9       
S           100.35      32.61       -32.09      
H           98.45       35.68       -31.54      
H           100.28      35.99       -33.32      
C           99.09       34.83       -31.89      
C           99.1        33.6        -31.36      
C           103.93      32.86       -35.1       
C           103.49      34.03       -35.64      
S           102.93      32.31       -33.8       
H           101.81      35.46       -35.3       
H           104.07      34.53       -36.41      
C           102.32      34.49       -35.0       
C           101.93      33.68       -33.98      
C           109.67      30.3        -37.07      
C           108.38      29.79       -36.84      
C           109.94      31.66       -36.72      
C           107.37      30.63       -36.3       
C           107.58      31.93       -35.89      
C           106.06      30.14       -36.04      
C           108.97      32.43       -36.13      
C           109.27      33.83       -35.75      
N           108.26      34.65       -35.24      
C           106.92      34.19       -35.07      
C           105.76      28.69       -36.33      
N           106.73      27.9        -37.01      
C           108.0       28.41       -37.27      
O           104.57      28.35       -36.22      
O           108.8       27.65       -37.98      
O           110.31      34.31       -36.19      
O           106.1       35.0        -34.74      
C           108.46      36.14       -35.18      
C           106.6       26.45       -36.87      
H           107.54      36.67       -35.32      
H           109.13      36.47       -35.97      
H           109.00703   36.43403    -34.28423   
H           107.25      25.87       -37.6       
H           105.55      26.26       -37.07      
H           106.74508   26.17436    -35.82546   
H           110.87      32.11       -36.95      
H           103.98      30.54       -35.44      
C           105.03      30.92       -35.6       
C           106.53      32.75       -35.46      
C           105.22      32.29       -35.32      
C           113.21      29.2        -38.7       
C           112.88      28.42       -37.65      
S           111.94      30.29       -39.02      
H           111.24      28.07       -36.21      
H           113.48      27.73       -37.16      
C           111.55      28.66       -37.06      
C           110.94      29.73       -37.61      
C           116.94      28.86       -40.07      
C           116.25      29.69       -40.9       
S           115.81      28.36       -38.88      
H           114.18      30.52       -41.11      
H           116.67      30.07       -41.85      
C           114.87      29.93       -40.53      
C           114.44      29.21       -39.45      
H           37.16       42.21       13.81       
H           117.8       28.32       -40.39      
