512

C           66.77       15.96       12.18       
C           68.08       16.3        12.26       
S           65.99       17.22       11.31       
H           69.54       17.83       11.61       
H           68.71       15.64       12.8        
C           68.52       17.47       11.57       
C           67.45       18.11       11.01       
C           63.23       11.34       15.19       
C           63.99       12.39       15.63       
C           63.35       11.08       13.78       
C           64.77       13.16       14.71       
C           64.74       12.94       13.38       
C           65.54       14.23       15.14       
C           63.96       11.84       12.93       
C           63.84       11.49       11.48       
N           64.43       12.4        10.6        
C           65.12       13.55       10.94       
C           65.65       14.61       16.58       
N           64.96       13.79       17.54       
C           64.05       12.81       17.07       
O           66.36       15.56       17.01       
O           63.32       12.27       17.91       
O           63.0        10.7        11.12       
O           65.76       14.1        10.12       
C           64.5        12.0        9.17        
C           64.98       14.17       18.95       
H           63.51       11.64       9.02        
H           64.72       12.81       8.43        
H           65.20202    11.1762     9.04106     
H           63.96       14.12       19.38       
H           65.21       15.25       19.05       
H           65.62625    13.46694    19.47552    
H           63.0        10.12       13.36       
H           66.89       15.79       14.58       
C           66.21       15.02       14.25       
C           65.39       13.72       12.45       
C           66.16       14.83       12.88       
C           61.79       8.35        17.36       
C           60.94       8.64        16.38       
S           63.13       9.44        17.28       
H           60.8        9.85        14.54       
H           60.07       7.98        16.19       
C           61.4        9.63        15.5        
C           62.54       10.25       15.93       
C           61.25       5.0         19.31       
C           61.78       5.87        20.14       
S           61.18       5.69        17.68       
H           62.24       8.0         20.15       
H           62.06       5.59        21.09       
C           61.93       7.14        19.58       
C           61.79       7.2         18.22       
C           61.2        1.38        20.57       
C           60.21       1.51        19.55       
S           62.02       2.93        20.79       
H           59.16       3.12        18.47       
H           59.77       0.62        19.1        
C           60.0        2.84        19.15       
C           60.91       3.67        19.63       
C           62.9        -4.51       22.9        
C           62.52       -3.3        23.52       
C           63.25       -4.45       21.57       
C           62.35       -2.16       22.69       
C           62.6        -2.15       21.28       
C           61.84       -0.99       23.24       
C           63.01       -3.38       20.76       
C           63.36       -3.43       19.29       
N           63.13       -2.25       18.5        
C           62.52       -1.08       18.93       
C           61.48       -0.8        24.69       
N           61.75       -1.94       25.44       
C           62.35       -3.11       24.97       
O           61.16       0.31        25.11       
O           62.46       -4.08       25.75       
O           63.67       -4.5        18.77       
O           62.4        -0.08       18.24       
C           64.0        -2.2        17.32       
C           61.05       -2.14       26.77       
H           65.03       -2.68       17.55       
H           64.14       -1.12       17.17       
H           63.55035    -2.66392    16.44211    
H           60.37       -2.92       26.67       
H           60.41       -1.26       26.91       
H           61.63295    -2.28218    27.67997    
H           63.69       -5.29       21.08       
H           61.19       0.98        22.86       
C           61.66       0.07        22.45       
C           62.29       -1.05       20.43       
C           61.77       0.06        21.03       
C           62.79       -8.09       24.52       
C           63.89       -8.01       23.73       
S           61.85       -6.63       24.41       
H           64.9        -6.59       22.42       
H           64.56       -8.81       23.51       
C           64.05       -6.79       23.09       
C           63.09       -5.83       23.46       
C           60.87       -10.85      26.71       
C           61.22       -11.36      25.51       
S           61.48       -9.14       26.77       
H           62.37       -10.84      23.68       
H           60.92       -12.35      25.24       
C           62.05       -10.55      24.7        
C           62.19       -9.24       25.15       
C           58.93       -13.04      29.22       
C           59.15       -11.81      29.73       
S           59.66       -13.13      27.65       
H           60.08       -9.86       29.18       
H           58.8        -11.45      30.72       
C           59.77       -10.87      28.89       
C           60.1        -11.46      27.74       
C           55.19       -17.58      32.2        
C           54.9        -16.32      31.66       
C           56.5        -18.01      32.15       
C           55.91       -15.56      31.03       
C           57.28       -16.04      31.04       
C           55.63       -14.33      30.44       
C           57.6        -17.26      31.66       
C           58.92       -17.92      31.67       
N           59.95       -17.13      31.15       
C           59.75       -15.86      30.56       
C           54.28       -13.85      30.21       
N           53.23       -14.66      30.75       
C           53.47       -15.79      31.52       
O           54.07       -12.73      29.79       
O           52.47       -16.48      31.9        
O           58.99       -19.02      31.99       
O           60.72       -15.38      29.99       
C           60.92       -17.92      30.4        
C           51.86       -14.22      30.57       
H           60.88       -17.59      29.36       
H           60.58       -18.93      30.38       
H           61.91573    -17.92727   30.84336    
H           51.19       -14.97      30.41       
H           51.71       -13.64      29.65       
H           51.51363    -13.58499   31.38541    
H           56.73       -18.94      32.65       
H           56.52       -12.68      29.47       
C           56.73       -13.63      29.96       
C           58.36       -15.3       30.47       
C           58.07       -14.04      29.94       
C           52.84       -20.21      33.92       
C           52.66       -19.04      34.61       
S           54.08       -20.07      32.79       
H           53.4        -16.91      34.44       
H           51.85       -18.79      35.24       
C           53.54       -18.01      34.13       
C           54.33       -18.42      33.09       
C           51.6        -23.89      33.67       
C           51.02       -23.44      34.8        
S           52.56       -22.8       32.72       
H           51.0        -21.45      35.74       
H           50.4        -23.99      35.41       
C           51.41       -22.05      34.96       
C           52.22       -21.58      33.93       
C           52.2        -27.08      31.69       
C           51.83       -27.43      33.02       
S           52.24       -25.35      31.56       
H           51.24       -26.32      34.82       
H           51.77       -28.48      33.4        
C           51.58       -26.34      33.82       
C           51.66       -25.2       33.12       
C           54.46       -31.6       27.3        
C           53.37       -30.68      27.23       
C           55.41       -31.39      28.3        
C           53.25       -29.78      28.39       
C           54.08       -29.73      29.49       
C           52.16       -28.87      28.39       
C           55.24       -30.59      29.43       
C           56.23       -30.63      30.51       
N           55.94       -29.87      31.58       
C           54.84       -28.96      31.69       
C           51.17       -28.75      27.32       
N           51.26       -29.75      26.31       
C           52.31       -30.73      26.18       
O           50.23       -27.94      27.45       
O           52.33       -31.49      25.19       
O           57.28       -31.33      30.41       
O           54.79       -28.33      32.73       
C           57.01       -29.72      32.62       
C           50.21       -29.83      25.35       
H           56.97       -28.77      33.25       
H           57.96       -29.52      32.15       
H           57.0583     -30.62392   33.22721    
H           50.71       -29.86      24.4        
H           49.64       -28.87      25.41       
H           49.58844    -30.7209    25.43978    
H           56.3        -31.97      28.18       
H           50.97       -27.51      29.51       
C           51.85       -28.13      29.52       
C           53.79       -28.95      30.62       
C           52.66       -28.12      30.68       
C           56.25       -33.66      24.46       
C           56.05       -34.42      25.53       
S           55.45       -32.09      24.67       
H           54.98       -34.27      27.54       
H           56.57       -35.37      25.65       
C           55.29       -33.84      26.55       
C           54.99       -32.55      26.31       
C           58.42       -33.46      21.19       
C           58.5        -34.71      21.66       
S           57.25       -32.55      22.1        
H           57.69       -35.73      23.48       
H           59.12       -35.49      21.17       
C           57.76       -34.81      22.94       
C           57.12       -33.69      23.33       
C           60.2        -31.17      18.62       
C           60.12       -32.36      18.1        
S           59.23       -31.07      19.99       
H           59.4        -34.47      18.59       
H           60.83       -32.62      17.35       
C           59.49       -33.38      18.9        
C           58.95       -32.79      20.04       
C           64.07       -26.51      15.94       
C           63.56       -26.68      17.16       
C           63.49       -27.27      14.89       
C           62.65       -27.75      17.45       
C           62.12       -28.61      16.43       
C           62.23       -28.16      18.77       
C           62.53       -28.25      15.14       
C           62.13       -28.94      13.87       
N           61.17       -29.87      14.11       
C           60.73       -30.38      15.33       
C           62.59       -27.34      19.95       
N           63.56       -26.34      19.74       
C           64.06       -25.97      18.42       
O           62.21       -27.63      21.1        
O           64.96       -25.17      18.3        
O           62.43       -28.62      12.73       
O           59.85       -31.3       15.32       
C           60.9        -30.74      12.9        
C           64.32       -25.81      20.93       
H           60.35       -31.67      13.17       
H           61.89       -31.03      12.52       
H           60.30201    -30.31584   12.09341    
H           65.38       -25.97      20.74       
H           64.05       -26.32      21.88       
H           64.0958     -24.76133   21.12527    
H           63.76       -27.1       13.81       
H           61.2        -29.47      19.96       
C           61.4        -29.22      18.93       
C           61.21       -29.71      16.6        
C           60.79       -30.0       17.91       
C           66.68       -24.13      14.16       
C           65.51       -23.46      14.28       
S           66.56       -25.69      14.87       
H           63.46       -23.84      15.36       
H           65.37       -22.5       13.82       
C           64.51       -24.19      15.04       
C           64.94       -25.46      15.37       
C           70.06       -23.9       12.39       
C           69.21       -23.07      11.73       
S           69.32       -24.6       13.8        
H           67.21       -22.32      12.01       
H           69.5        -22.49      10.9        
C           67.95       -23.01      12.35       
C           67.81       -23.86      13.41       
C           73.45       -24.41      10.79       
C           73.71       -24.33      12.15       
S           71.8        -24.51      10.46       
H           72.48       -24.0       13.99       
H           74.67       -24.26      12.6        
C           72.46       -24.19      12.91       
C           71.42       -24.19      12.08       
C           77.71       -24.55      5.71        
C           76.53       -23.87      5.97        
C           78.09       -25.52      6.6         
C           75.84       -24.03      7.18        
C           76.24       -25.02      8.12        
C           74.7        -23.21      7.54        
C           77.41       -25.76      7.73        
C           78.0        -26.82      8.57        
N           77.36       -26.96      9.86        
C           76.18       -26.33      10.24       
C           74.26       -22.14      6.71        
N           74.99       -21.99      5.45        
C           76.03       -22.8       4.98        
O           73.4        -21.36      7.07        
O           76.7        -22.49      4.0         
O           78.82       -27.59      8.1         
O           75.66       -26.67      11.31       
C           77.89       -27.8       10.96       
C           74.68       -20.74      4.65        
H           77.48       -28.78      10.92       
H           77.63       -27.37      11.89       
H           78.97882    -27.75114   10.97396    
H           75.59       -20.28      4.42        
H           74.2        -19.96      5.23        
H           74.02421    -20.9609    3.80783     
H           78.94       -26.1       6.26        
H           73.33       -22.83      9.07        
C           74.12       -23.46      8.8         
C           75.57       -25.23      9.4         
C           74.46       -24.47      9.68        
C           80.43       -23.71      3.14        
C           79.33       -24.19      2.46        
S           80.31       -23.98      4.85        
H           77.4        -25.1       2.95        
H           79.19       -24.13      1.4         
C           78.35       -24.72      3.33        
C           78.66       -24.4       4.64        
C           82.93       -21.06      1.65        
C           83.69       -22.01      2.37        
S           81.31       -21.64      1.73        
H           83.26       -23.72      3.6         
H           84.81       -21.87      2.55        
C           82.92       -23.06      2.86        
C           81.61       -23.08      2.56        
C           84.64       -17.8       0.31        
C           83.31       -17.77      -0.12       
S           84.92       -19.18      1.33        
H           81.48       -19.17      0.18        
H           83.02       -17.01      -0.82       
C           82.54       -18.91      0.33        
C           83.28       -19.77      1.1         
C           89.36       -13.16      -0.43       
C           87.96       -13.16      -0.48       
C           89.93       -14.44      -0.26       
C           87.24       -14.36      -0.37       
C           87.81       -15.63      -0.29       
C           85.84       -14.31      -0.27       
C           89.2        -15.62      -0.22       
C           89.98       -16.91      -0.2        
N           89.13       -18.03      -0.3        
C           87.73       -18.13      -0.37       
C           85.09       -13.01      -0.29       
N           85.79       -11.87      -0.52       
C           87.18       -11.89      -0.55       
O           83.9        -13.03      -0.1        
O           87.8        -10.79      -0.41       
O           91.18       -16.88      -0.32       
O           87.22       -19.13      -0.87       
C           89.88       -19.3       -0.48       
C           85.01       -10.58      -0.54       
H           90.46       -19.16      -1.41       
H           89.17       -20.03      -0.77       
H           90.43233    -19.60763   0.40792     
H           85.65       -9.85       -0.01       
H           84.12       -10.74      -0.0        
H           84.85492    -10.24769   -1.56646    
H           90.98       -14.63      -0.1        
H           84.02       -15.3       0.17        
C           85.07       -15.44      -0.1        
C           87.0        -16.83      -0.26       
C           85.61       -16.75      -0.13       
C           92.34       -10.57      -1.02       
C           91.37       -10.38      -1.98       
S           91.91       -12.02      -0.21       
H           89.4        -11.29      -2.48       
H           91.47       -9.58       -2.69       
C           90.24       -11.27      -1.87       
C           90.38       -12.17      -0.87       
C           95.92       -9.05       -1.19       
C           95.67       -9.47       0.06        
S           94.54       -9.35       -2.14       
H           93.95       -10.24      1.23        
H           96.4        -9.3        0.85        
C           94.38       -9.98       0.28        
C           93.56       -9.91       -0.8        
C           99.52       -8.04       -2.13       
C           98.84       -8.25       -3.31       
S           98.42       -8.23       -0.79       
H           96.77       -8.99       -4.01       
H           99.32       -8.14       -4.27       
C           97.42       -8.55       -3.19       
C           97.09       -8.59       -1.87       
C           105.95      -6.38       -1.42       
C           105.21      -7.64       -1.64       
C           105.16      -5.24       -1.39       
C           103.82      -7.6        -1.77       
C           103.05      -6.39       -1.81       
C           103.13      -8.84       -1.88       
C           103.83      -5.18       -1.61       
C           103.14      -3.93       -1.3        
N           101.75      -3.91       -1.39       
C           101.0       -5.1        -1.65       
C           103.8       -10.23      -1.9        
N           105.24      -10.11      -1.75       
C           105.95      -8.96       -1.64       
O           103.12      -11.31      -1.86       
O           107.14      -8.99       -1.59       
O           103.75      -2.9        -0.99       
O           99.76       -4.97       -1.56       
C           100.9       -2.85       -0.76       
C           105.87      -11.38      -1.23       
H           101.34      -2.62       0.18        
H           99.82       -3.08       -0.71       
H           100.91397   -1.96976    -1.40271    
H           106.92      -11.36      -1.42       
H           105.29      -12.09      -1.8        
H           105.58962   -11.53097   -0.18755    
H           105.68      -4.32       -1.18       
H           101.37      -9.81       -1.98       
C           101.78      -8.83       -1.92       
C           101.63      -6.43       -1.82       
C           100.95      -7.68       -2.03       
C           109.63      -5.0        -1.02       
C           109.47      -6.05       -0.2        
S           108.2       -4.81       -2.0        
H           107.8       -7.44       0.41        
H           110.33      -6.39       0.38        
C           108.15      -6.63       -0.26       
C           107.36      -6.07       -1.19       
C           112.98      -2.83       -0.86       
C           112.24      -2.46       -1.97       
S           112.26      -4.22       -0.22       
H           110.29      -2.99       -2.95       
H           112.61      -1.62       -2.55       
C           111.03      -3.22       -2.16       
C           110.84      -4.2        -1.24       
C           115.86      -0.66       0.68        
C           115.55      -1.64       1.55        
S           114.84      -0.84       -0.7        
H           114.19      -3.31       1.74        
H           115.84      -1.62       2.6         
C           114.64      -2.58       1.05        
C           114.11      -2.31       -0.21       
C           119.75      4.48        2.18        
C           118.67      3.8         2.81        
C           120.1       3.99        0.89        
C           117.97      2.75        2.17        
C           118.35      2.28        0.96        
C           116.92      2.05        2.84        
C           119.44      2.98        0.3         
C           119.88      2.71        -1.08       
N           119.35      1.47        -1.63       
C           118.29      0.74        -1.02       
C           116.39      2.6         4.1         
N           117.05      3.61        4.66        
C           118.17      4.27        4.14        
O           115.52      1.94        4.71        
O           118.78      4.98        4.86        
O           120.83      3.28        -1.66       
O           118.09      -0.32       -1.5        
C           120.01      0.88        -2.83       
C           116.29      4.47        5.64        
H           120.08      1.67        -3.58       
H           119.43      0.03        -3.29       
H           120.97619   0.45374     -2.56004    
H           117.08      4.92        6.32        
H           115.64      3.91        6.21        
H           115.76542   5.23938     5.07346     
H           120.77      4.61        0.26        
H           115.59      0.52        2.88        
C           116.4       0.96        2.28        
C           117.74      1.16        0.28        
C           116.75      0.44        1.0         
C           121.64      7.89        2.39        
C           121.95      7.2         3.53        
S           120.42      7.15        1.42        
H           121.44      5.15        4.21        
H           122.56      7.58        4.4         
C           121.36      5.91        3.44        
C           120.42      5.74        2.5         
C           121.74      11.48       0.98        
C           122.48      11.5        2.13        
S           121.15      9.85        0.65        
H           123.07      10.11       3.63        
H           123.09      12.32       2.47        
C           122.5       10.27       2.77        
C           121.88      9.32        2.1         
C           120.51      14.34       -1.46       
C           121.9       14.41       -1.25       
S           119.96      13.06       -0.36       
H           123.56      13.47       -0.19       
H           122.5       15.22       -1.72       
C           122.51      13.46       -0.38       
C           121.55      12.6        0.15        
C           117.21      18.43       -5.46       
C           118.22      18.61       -4.52       
C           116.82      17.14       -5.7        
C           118.75      17.48       -3.78       
C           118.3       16.14       -4.0        
C           119.57      17.56       -2.65       
C           117.38      15.99       -5.05       
C           116.85      14.65       -5.48       
N           117.31      13.57       -4.69       
C           118.18      13.71       -3.59       
C           120.16      18.88       -2.32       
N           119.76      19.95       -3.13       
C           118.85      19.94       -4.23       
O           121.05      19.03       -1.51       
O           118.6       20.97       -4.83       
O           116.04      14.53       -6.36       
O           118.34      12.68       -2.91       
C           117.13      12.26       -5.24       
C           120.22      21.33       -2.81       
H           116.13      12.11       -5.67       
H           117.16      11.43       -4.45       
H           117.84873   12.09793    -6.04328    
H           120.4       21.87       -3.74       
H           121.24      21.17       -2.45       
H           119.56536   21.84386    -2.10609    
H           116.07      16.95       -6.46       
H           120.81      16.74       -1.16       
C           120.02      16.54       -1.88       
C           118.79      15.03       -3.28       
C           119.78      15.24       -2.31       
C           114.31      21.1        -6.26       
C           114.39      20.28       -7.28       
S           115.38      20.61       -5.0        
H           115.31      18.41       -7.71       
H           113.69      20.3        -8.1        
C           115.36      19.24       -7.04       
C           116.23      19.45       -6.02       
C           111.31      23.68       -6.07       
C           112.42      24.25       -5.5        
S           111.78      22.14       -6.74       
H           114.56      23.71       -5.12       
H           112.39      25.12       -4.96       
C           113.54      23.44       -5.52       
C           113.33      22.24       -6.15       
H           67.56       18.81       10.24       
H           110.27      24.04       -6.16       
