512

C           62.16       31.57       8.3         
C           61.43       32.74       8.23        
S           63.81       31.9        7.96        
H           61.84       34.94       8.01        
H           60.36       32.86       8.32        
C           62.26       33.9        8.2         
C           63.56       33.6        7.92        
C           59.19       26.28       10.97       
C           60.6        26.58       10.74       
C           58.24       27.09       10.37       
C           60.85       27.77       10.05       
C           59.87       28.61       9.47        
C           62.18       28.24       9.87        
C           58.52       28.21       9.61        
C           57.33       29.02       9.25        
N           57.65       30.06       8.45        
C           58.97       30.44       8.11        
C           63.37       27.42       10.46       
N           63.03       26.21       11.04       
C           61.74       25.72       11.19       
O           64.59       27.73       10.33       
O           61.5        24.63       11.68       
O           56.12       28.72       9.42        
O           59.11       31.19       7.13        
C           56.47       30.95       8.0         
C           64.08       25.39       11.7        
H           56.7        31.38       7.06        
H           55.58       30.34       7.75        
H           56.20591    31.64233    8.7994      
H           63.68       25.0        12.65       
H           64.94       26.05       11.87       
H           64.42243    24.52679    11.12928    
H           57.15       26.94       10.65       
H           63.5        29.62       9.06        
C           62.48       29.39       9.19        
C           60.16       29.8        8.72        
C           61.46       30.23       8.59        
C           57.36       23.41       12.96       
C           58.43       23.74       13.69       
S           57.19       24.38       11.62       
H           60.17       25.22       13.45       
H           58.7        23.33       14.65       
C           59.2        24.81       13.09       
C           58.6        25.34       11.93       
C           54.45       20.79       13.38       
C           55.65       20.2        13.58       
S           54.8        22.45       12.86       
H           57.74       20.72       13.87       
H           55.66       19.16       13.96       
C           56.76       21.07       13.6        
C           56.49       22.34       13.13       
C           51.12       18.83       13.43       
C           50.9        20.11       13.03       
S           52.78       18.73       13.87       
H           51.95       22.07       12.88       
H           49.94       20.43       12.72       
C           51.96       21.02       13.09       
C           53.09       20.34       13.34       
C           46.83       13.73       13.58       
C           48.04       14.0        12.96       
C           46.36       14.77       14.38       
C           48.72       15.23       13.14       
C           48.22       16.28       13.99       
C           49.99       15.51       12.57       
C           46.98       16.0        14.59       
C           46.35       16.97       15.51       
N           47.01       18.19       15.72       
C           48.28       18.43       15.13       
C           50.67       14.47       11.74       
N           49.91       13.31       11.44       
C           48.7        13.01       12.03       
O           51.74       14.7        11.16       
O           48.35       11.93       11.81       
O           45.4        16.68       16.17       
O           48.87       19.46       15.5        
C           46.67       18.94       16.96       
C           50.62       12.3        10.61       
H           47.49       19.51       17.37       
H           46.26       18.23       17.71       
H           45.83181    19.61055    16.7705     
H           50.49       11.31       11.1        
H           51.62       12.46       10.81       
H           50.3942     12.34234    9.54449     
H           45.39       14.75       14.68       
H           51.64       16.74       12.34       
C           50.65       16.67       12.75       
C           48.89       17.51       14.16       
C           50.13       17.73       13.54       
C           43.95       11.15       12.61       
C           44.25       11.04       13.91       
S           44.97       12.34       11.86       
H           45.65       11.93       15.39       
H           43.7        10.4        14.52       
C           45.33       11.84       14.35       
C           45.87       12.63       13.36       
C           41.83       9.0         10.05       
C           41.45       8.69        11.29       
S           43.07       10.25       10.16       
H           41.78       9.41        13.42       
H           40.61       7.98        11.58       
C           42.07       9.5         12.35       
C           43.0        10.35       11.89       
C           40.39       8.56        6.45        
C           39.87       7.58        7.24        
S           41.68       9.36        7.31        
H           39.95       6.95        9.26        
H           39.09       6.86        6.86        
C           40.27       7.62        8.57        
C           41.25       8.55        8.79        
C           41.07       7.98        -0.08       
C           41.28       7.16        0.95        
C           40.69       9.34        0.27        
C           40.97       7.5         2.34        
C           40.45       8.75        2.63        
C           41.17       6.68        3.43        
C           40.35       9.73        1.55        
C           39.92       11.13       1.68        
N           39.56       11.47       2.96        
C           39.73       10.59       4.06        
C           41.64       5.3         3.23        
N           41.89       4.95        1.95        
C           41.75       5.72        0.82        
O           41.65       4.56        4.19        
O           41.81       5.13        -0.24       
O           39.87       11.93       0.77        
O           39.46       11.07       5.19        
C           39.05       12.88       3.19        
C           42.61       3.66        1.83        
H           39.84       13.62       2.97        
H           38.79       13.04       4.22        
H           38.19278    13.18665    2.59064     
H           42.0        2.98        1.18        
H           42.48       3.04        2.73        
H           43.66094    3.72348     1.54787     
H           40.73       10.09       -0.51       
H           41.21       6.35        5.54        
C           40.87       7.04        4.74        
C           40.2        9.22        3.93        
C           40.43       8.36        5.02        
C           42.08       7.79        -3.95       
C           43.13       7.49        -3.15       
S           40.66       7.96        -2.98       
H           43.58       7.45        -1.01       
H           44.11       7.17        -3.52       
C           42.9        7.61        -1.78       
C           41.59       7.92        -1.46       
C           42.09       6.94        -7.71       
C           41.02       7.7         -7.58       
S           42.89       6.53        -6.24       
H           40.16       8.8         -5.82       
H           40.23       7.87        -8.34       
C           40.96       8.21        -6.18       
C           41.94       7.72        -5.38       
C           42.84       5.51        -11.28      
C           43.72       4.99        -10.36      
S           41.79       6.51        -10.39      
H           44.21       4.9         -8.22       
H           44.54       4.36        -10.63      
C           43.54       5.31        -9.01       
C           42.53       6.22        -8.84       
C           43.94       4.06        -17.57      
C           43.8        3.32        -16.41      
C           43.76       5.45        -17.44      
C           43.53       4.01        -15.2       
C           43.32       5.37        -15.09      
C           43.46       3.27        -13.98      
C           43.36       6.15        -16.26      
C           43.25       7.63        -16.25      
N           42.8        8.15        -15.04      
C           42.61       7.4         -13.87      
C           43.52       1.74        -13.94      
N           43.86       1.11        -15.15      
C           43.91       1.81        -16.32      
O           43.44       1.13        -12.92      
O           44.15       1.18        -17.33      
O           43.27       8.21        -17.31      
O           42.18       8.02        -12.86      
C           42.33       9.54        -15.01      
C           44.31       -0.34       -15.13      
H           41.92       9.92        -14.08      
H           41.6        9.6         -15.81      
H           43.18467    10.19151    -15.19214   
H           44.06       -0.86       -16.09      
H           43.95       -0.86       -14.24      
H           45.39026    -0.46709    -15.05939   
H           44.04       6.09        -18.29      
H           43.32       3.19        -11.9       
C           43.34       3.84        -12.76      
C           42.97       5.95        -13.85      
C           43.01       5.21        -12.68      
C           46.9        3.39        -20.13      
C           45.75       3.74        -20.83      
S           46.46       3.23        -18.47      
H           43.78       4.48        -20.46      
H           45.72       4.06        -21.84      
C           44.66       4.02        -20.04      
C           44.78       3.68        -18.71      
C           50.8        2.7         -20.45      
C           50.31       3.14        -21.69      
S           49.5        2.8         -19.31      
H           48.3        3.49        -22.55      
H           50.79       3.14        -22.64      
C           48.89       3.26        -21.69      
C           48.3        3.2         -20.44      
C           54.59       2.3         -19.84      
C           53.95       1.85        -18.75      
S           53.47       2.88        -21.02      
H           51.99       1.65        -17.92      
H           54.46       1.57        -17.84      
C           52.57       1.86        -18.82      
C           52.14       2.43        -20.0       
C           61.01       2.29        -20.91      
C           59.89       2.15        -21.7       
C           60.84       2.71        -19.57      
C           58.63       2.25        -21.15      
C           58.48       2.59        -19.81      
C           57.44       1.96        -21.88      
C           59.63       2.87        -19.02      
C           59.66       3.3         -17.61      
N           58.38       3.38        -17.08      
C           57.14       3.09        -17.83      
C           57.51       1.42        -23.23      
N           58.79       1.41        -23.83      
C           59.97       1.81        -23.15      
O           56.48       1.24        -23.94      
O           61.0        1.77        -23.8       
O           60.67       3.38        -16.96      
O           56.07       3.36        -17.36      
C           58.3        3.16        -15.66      
C           58.92       0.92        -25.17      
H           59.04       2.47        -15.21      
H           57.31       2.84        -15.46      
H           58.3575     4.10151     -15.11378   
H           59.67       1.55        -25.68      
H           57.94       1.09        -25.71      
H           59.12129    -0.15116    -25.18438   
H           61.77       2.96        -19.03      
H           55.45       1.46        -21.88      
C           56.23       1.87        -21.31      
C           57.18       2.61        -19.21      
C           56.07       2.31        -19.99      
C           64.86       2.7         -21.78      
C           64.46       1.5         -22.25      
S           63.58       3.57        -20.98      
H           62.53       0.33        -22.22      
H           65.06       0.76        -22.77      
C           63.1        1.21        -21.89      
C           62.46       2.24        -21.26      
C           68.39       3.85        -22.7       
C           67.98       4.7         -21.66      
S           67.14       2.65        -23.12      
H           66.23       4.88        -20.38      
H           68.6        5.34        -21.09      
C           66.65       4.35        -21.22      
C           66.11       3.32        -21.89      
C           72.07       4.44        -24.1       
C           71.55       3.34        -24.7       
S           70.89       4.98        -22.9       
H           69.58       2.22        -24.71      
H           72.05       2.78        -25.44      
C           70.2        3.0         -24.3       
C           69.76       3.76        -23.3       
C           78.4        6.32        -24.86      
C           77.79       5.04        -24.87      
C           77.49       7.49        -24.97      
C           76.35       5.01        -24.72      
C           75.51       6.15        -24.6       
C           75.71       3.77        -24.55      
C           76.14       7.39        -24.81      
C           75.39       8.65        -24.83      
N           74.05       8.53        -24.54      
C           73.35       7.31        -24.31      
C           76.41       2.49        -24.61      
N           77.86       2.55        -24.65      
C           78.57       3.76        -24.73      
O           75.83       1.38        -24.51      
O           79.8        3.74        -24.71      
O           75.99       9.64        -25.03      
O           72.16       7.37        -24.15      
C           73.26       9.76        -24.59      
C           78.57       1.25        -24.57      
H           72.2        9.55        -24.95      
H           73.74       10.36       -25.37      
H           73.16822    10.25419    -23.62281   
H           79.49       1.36        -25.11      
H           77.95       0.48        -25.05      
H           78.72622    0.95177     -23.5333    
H           77.93       8.5         -25.12      
H           73.94       2.73        -24.3       
C           74.35       3.68        -24.37      
C           74.09       6.0         -24.42      
C           73.46       4.79        -24.27      
C           82.09       7.37        -26.09      
C           81.67       8.11        -25.06      
S           80.89       6.13        -26.32      
H           79.89       8.41        -23.84      
H           82.23       8.91        -24.66      
C           80.33       7.82        -24.58      
C           79.8        6.68        -25.05      
C           85.72       7.73        -27.35      
C           85.06       6.89        -28.24      
S           84.59       8.35        -26.28      
H           83.07       5.88        -28.48      
H           85.59       6.43        -29.12      
C           83.72       6.56        -27.88      
C           83.31       7.28        -26.8       
C           89.07       9.7         -26.91      
C           89.03       9.15        -28.16      
S           87.7        9.09        -26.03      
H           87.75       7.95        -29.47      
H           89.69       9.5         -28.93      
C           87.88       8.37        -28.44      
C           87.07       8.22        -27.36      
C           93.17       14.87       -26.41      
C           93.04       13.65       -25.61      
C           92.19       15.04       -27.38      
C           91.92       12.84       -25.87      
C           90.92       13.02       -26.8       
C           91.87       11.55       -25.21      
C           91.04       14.19       -27.57      
C           90.19       14.61       -28.73      
N           89.13       13.71       -28.96      
C           89.0        12.48       -28.25      
C           92.78       11.18       -24.14      
N           93.74       12.13       -23.85      
C           93.93       13.29       -24.52      
O           92.73       10.17       -23.44      
O           94.88       13.99       -24.13      
O           90.36       15.59       -29.42      
O           88.11       11.8        -28.64      
C           87.87       14.29       -29.43      
C           94.45       11.94       -22.5       
H           87.64       15.19       -28.87      
H           86.96       13.73       -29.16      
H           87.90488    14.47137    -30.50424   
H           95.48       12.37       -22.57      
H           94.65       10.81       -22.33      
H           93.87119    12.28998    -21.64525   
H           92.3        15.9        -28.07      
H           91.0        9.71        -24.86      
C           90.9        10.64       -25.42      
C           89.92       12.09       -27.14      
C           89.93       10.85       -26.51      
C           95.77       17.9        -25.87      
C           95.76       17.45       -27.18      
S           94.62       16.93       -24.96      
H           94.68       15.95       -28.46      
H           96.51       17.81       -27.95      
C           94.86       16.39       -27.45      
C           94.22       15.9        -26.3       
C           97.78       21.22       -25.23      
C           97.03       20.89       -24.1       
S           97.43       20.13       -26.48      
H           95.73       19.22       -23.44      
H           97.04       21.54       -23.21      
C           96.35       19.64       -24.21      
C           96.46       19.08       -25.41      
C           99.21       24.44       -26.67      
C           100.03      24.13       -25.65      
S           97.93       23.25       -26.84      
H           100.14      22.57       -24.03      
H           100.88      24.79       -25.4       
C           99.68       22.97       -24.88      
C           98.59       22.4        -25.5       
C           99.68       30.33       -29.7       
C           98.64       29.66       -29.04      
C           100.83      29.64       -29.83      
C           98.87       28.31       -28.61      
C           100.11      27.69       -28.59      
C           97.84       27.6        -27.95      
C           101.09      28.39       -29.3       
C           102.48      27.97       -29.5       
N           102.72      26.73       -28.86      
C           101.73      25.93       -28.25      
C           96.47       28.11       -27.8       
N           96.34       29.47       -28.23      
C           97.31       30.3        -28.77      
O           95.63       27.47       -27.29      
O           97.02       31.45       -29.0       
O           103.25      28.62       -30.2       
O           102.07      24.88       -27.71      
C           104.07      26.09       -28.7       
C           94.98       30.02       -27.97      
H           104.3       25.38       -29.46      
H           104.16      25.57       -27.71      
H           104.88726   26.81111    -28.68626   
H           95.07       31.1        -27.83      
H           94.76       29.45       -27.04      
H           94.34397    29.69849    -28.79474   
H           101.59      30.17       -30.4       
H           97.22       25.96       -26.83      
C           98.13       26.39       -27.36      
C           100.4       26.47       -28.04      
C           99.36       25.74       -27.4       
C           100.11      34.11       -30.88      
C           99.2        33.53       -31.73      
S           100.65      32.91       -29.71      
H           98.05       31.57       -31.81      
H           98.66       34.14       -32.46      
C           98.9        32.11       -31.35      
C           99.68       31.63       -30.34      
C           100.89      37.91       -30.99      
C           101.61      37.47       -29.95      
S           99.93       36.7        -31.67      
H           102.01      35.51       -28.98      
H           102.34      38.01       -29.32      
C           101.5       36.03       -29.79      
C           100.68      35.42       -30.73      
C           100.58      41.81       -31.43      
C           100.11      41.21       -32.58      
S           101.23      40.56       -30.4       
H           99.82       39.23       -33.44      
H           99.8        41.71       -33.49      
C           100.2       39.76       -32.57      
C           100.66      39.26       -31.37      
C           101.38      48.12       -30.05      
C           101.62      47.37       -31.2       
C           100.68      47.47       -29.0       
C           101.23      46.01       -31.2       
C           100.59      45.36       -30.1       
C           101.46      45.2        -32.35      
C           100.31      46.14       -28.96      
C           99.43       45.63       -27.84      
N           99.25       44.23       -27.92      
C           99.68       43.45       -28.97      
C           101.97      45.71       -33.65      
N           102.28      47.05       -33.64      
C           102.3       47.84       -32.44      
O           101.84      45.1        -34.7       
O           102.71      48.97       -32.63      
O           99.05       46.32       -26.89      
O           99.26       42.29       -28.93      
C           98.48       43.57       -26.8       
C           102.68      47.61       -34.96      
H           98.06       42.65       -27.1       
H           97.58       44.08       -26.51      
H           99.10506    43.38532    -25.92633   
H           102.51      48.72       -34.93      
H           102.0       47.16       -35.7       
H           103.72042   47.41047    -35.21654   
H           100.4       48.13       -28.17      
H           101.37      43.34       -33.26      
C           101.18      43.86       -32.34      
C           100.33      43.99       -30.11      
C           100.63      43.23       -31.22      
C           102.68      51.48       -28.6       
C           102.16      51.76       -29.8       
S           102.52      49.79       -28.17      
H           100.9       50.74       -31.23      
H           102.21      52.73       -30.18      
C           101.48      50.63       -30.32      
C           101.68      49.46       -29.64      
C           104.68      54.33       -26.93      
C           104.63      53.31       -26.04      
S           103.83      53.98       -28.36      
H           103.9       51.23       -26.03      
H           105.18      53.35       -25.07      
C           103.94      52.2        -26.57      
C           103.43      52.39       -27.8       
C           105.78      57.97       -26.0       
C           105.9       57.82       -27.35      
S           105.38      56.45       -25.3       
H           105.85      56.28       -28.87      
H           106.26      58.58       -28.02      
C           105.65      56.54       -27.8       
C           105.23      55.7        -26.86      
C           108.11      63.57       -23.39      
C           106.9       62.96       -23.33      
C           109.2       62.86       -23.97      
C           106.71      61.67       -23.89      
C           107.76      60.97       -24.57      
C           105.46      61.02       -23.92      
C           109.04      61.62       -24.55      
C           110.19      61.09       -25.4       
N           109.93      59.95       -26.16      
C           108.73      59.24       -26.1       
C           104.26      61.46       -23.11      
N           104.46      62.73       -22.5       
C           105.66      63.48       -22.64      
O           103.26      60.83       -22.96      
O           105.72      64.5        -21.92      
O           111.18      61.69       -25.61      
O           108.67      58.22       -26.75      
C           111.01      59.21       -26.71      
C           103.34      63.62       -22.21      
H           110.92      58.13       -26.82      
H           111.84      59.23       -25.94      
H           111.29487   59.6373     -27.67144   
H           103.57      64.22       -21.36      
H           102.5       62.97       -21.85      
H           102.94956   64.15686    -23.07455   
H           109.96      63.4        -24.32      
H           104.34      59.4        -24.54      
C           105.33      59.79       -24.6       
C           107.57      59.72       -25.29      
C           106.33      59.12       -25.29      
C           108.53      67.43       -22.91      
C           109.59      66.78       -22.25      
S           107.44      66.26       -23.55      
H           110.21      64.72       -22.0       
H           110.46      67.29       -21.91      
C           109.55      65.4        -22.39      
C           108.48      64.96       -23.06      
C           108.59      71.32       -22.86      
C           107.45      70.98       -23.5       
S           109.52      69.98       -22.43      
H           106.36      69.16       -23.8       
H           106.7       71.59       -23.98      
C           107.33      69.56       -23.5       
C           108.37      68.88       -23.1       
H           64.1        34.32       7.29        
H           108.68      72.31       -22.42      
