512

C           56.77       11.76       25.07       
C           57.53       10.72       24.58       
S           57.29       13.19       24.22       
H           59.14       10.28       23.11       
H           57.4        9.72        25.01       
C           58.46       11.03       23.54       
C           58.41       12.33       23.16       
C           52.85       12.16       30.29       
C           54.08       11.55       30.12       
C           52.15       12.64       29.21       
C           54.64       11.59       28.78       
C           53.94       12.11       27.7        
C           55.97       11.01       28.65       
C           52.65       12.61       27.91       
C           51.85       13.2        26.85       
N           52.47       13.27       25.61       
C           53.72       12.73       25.32       
C           56.7        10.34       29.74       
N           56.05       10.25       30.97       
C           54.88       10.97       31.25       
O           57.67       9.64        29.47       
O           54.57       10.92       32.44       
O           50.69       13.48       26.95       
O           54.19       12.7        24.16       
C           52.03       14.34       24.64       
C           56.51       9.14        31.82       
H           52.4        14.1        23.59       
H           51.0        14.15       24.53       
H           52.27777    15.33818    25.00104    
H           56.41       9.38        32.88       
H           57.6        9.16        31.69       
H           56.15852    8.14294     31.5546     
H           51.16       13.09       29.28       
H           57.26       10.52       27.25       
C           56.42       11.04       27.4        
C           54.55       12.09       26.4        
C           55.8        11.57       26.24       
C           50.33       11.22       33.06       
C           50.51       12.52       33.09       
S           51.27       10.48       31.81       
H           51.66       14.09       31.88       
H           49.94       13.12       33.74       
C           51.39       13.0        32.12       
C           51.96       12.01       31.44       
C           47.26       9.05        33.74       
C           47.65       9.62        34.9        
S           48.25       9.63        32.51       
H           49.21       10.94       35.7        
H           47.09       9.39        35.78       
C           48.73       10.47       34.88       
C           49.26       10.48       33.62       
C           44.28       6.98        32.33       
C           44.35       6.75        33.68       
S           45.47       8.14        31.87       
H           45.74       7.3         35.39       
H           43.59       6.12        34.17       
C           45.47       7.34        34.35       
C           46.12       8.14        33.48       
C           40.13       3.92        28.26       
C           41.5        3.97        28.3        
C           39.44       4.68        29.23       
C           42.15       4.71        29.36       
C           41.42       5.44        30.34       
C           43.52       4.75        29.43       
C           39.98       5.38        30.26       
C           39.06       5.94        31.21       
N           39.68       6.58        32.35       
C           41.09       6.67        32.44       
C           44.39       4.09        28.43       
N           43.75       3.39        27.42       
C           42.36       3.28        27.26       
O           45.67       4.08        28.56       
O           42.0        2.7         26.26       
O           37.86       5.92        31.02       
O           41.58       7.25        33.38       
C           38.83       6.92        33.51       
C           44.5        2.24        26.8        
H           39.43       6.89        34.38       
H           38.06       6.15        33.6        
H           38.44593    7.93709     33.43176    
H           43.98       1.34        26.82       
H           45.35       2.09        27.47       
H           44.94041    2.41328     25.81811    
H           38.36       4.63        29.23       
H           45.2        5.69        30.38       
C           44.12       5.59        30.36       
C           42.03       6.17        31.39       
C           43.39       6.34        31.35       
C           37.98       0.99        26.54       
C           37.35       2.18        26.56       
S           39.53       1.22        27.28       
H           37.56       4.15        27.27       
H           36.35       2.42        26.14       
C           38.03       3.23        27.2        
C           39.27       2.96        27.54       
C           36.94       -1.83       24.19       
C           37.72       -2.46       25.15       
S           36.74       -0.19       24.57       
H           38.94       -1.78       26.89       
H           37.99       -3.52       25.07       
C           38.14       -1.56       26.18       
C           37.61       -0.27       26.02       
C           36.71       -3.74       20.88       
C           35.89       -2.69       20.7        
S           37.54       -3.69       22.47       
H           35.13       -0.98       21.94       
H           35.49       -2.4        19.75       
C           35.72       -1.94       21.92       
C           36.54       -2.38       22.94       
C           38.81       -7.38       15.79       
C           37.63       -7.31       16.52       
C           39.91       -6.68       16.29       
C           37.49       -6.44       17.61       
C           38.52       -5.59       18.02       
C           36.22       -6.32       18.23       
C           39.74       -5.74       17.3        
C           40.91       -4.89       17.64       
N           40.69       -3.9        18.62       
C           39.48       -3.72       19.32       
C           35.04       -7.0        17.79       
N           35.17       -7.84       16.68       
C           36.4        -8.06       16.04       
O           33.96       -6.69       18.36       
O           36.35       -8.71       15.01       
O           41.99       -5.21       17.26       
O           39.47       -2.74       20.04       
C           41.86       -3.52       19.39       
C           34.01       -8.57       16.16       
H           42.28       -4.47       19.65       
H           41.63       -3.08       20.36       
H           42.54703    -2.83977    18.88663    
H           34.14       -8.9        15.11       
H           33.14       -7.96       16.21       
H           33.74277    -9.46819    16.71673    
H           40.86       -6.8        15.78       
H           35.11       -5.27       19.8        
C           36.08       -5.4        19.28       
C           38.37       -4.65       19.09       
C           37.13       -4.56       19.69       
C           40.37       -9.64       12.9        
C           39.49       -10.37      13.53       
S           40.31       -7.95       13.45       
H           38.11       -10.14      15.14       
H           39.41       -11.46      13.33       
C           38.78       -9.59       14.5        
C           39.19       -8.32       14.72       
C           42.76       -9.91       10.03       
C           42.15       -11.12      10.07       
S           42.21       -8.75       11.21       
H           40.58       -12.08      11.28       
H           42.32       -11.99      9.44        
C           41.15       -11.19      11.09       
C           41.17       -10.0       11.74       
C           46.11       -8.69       8.48        
C           45.64       -9.69       7.66        
S           45.09       -8.52       9.84        
H           43.85       -10.94      7.42        
H           46.17       -10.04      6.82        
C           44.36       -10.19      8.07        
C           43.91       -9.61       9.22        
C           52.1        -6.21       8.62        
C           50.85       -5.6        8.54        
C           52.3        -7.59       8.42        
C           49.73       -6.46       8.31        
C           49.85       -7.87       8.3         
C           48.39       -5.94       8.35        
C           51.18       -8.4        8.28        
C           51.47       -9.88       8.19        
N           50.32       -10.73      8.18        
C           49.01       -10.22      8.31        
C           48.06       -4.49       8.26        
N           49.22       -3.66       8.25        
C           50.56       -4.07       8.46        
O           46.95       -3.97       8.18        
O           51.46       -3.24       8.4         
O           52.56       -10.35      8.21        
O           48.18       -11.11      8.43        
C           50.54       -12.11      8.47        
C           49.06       -2.26       7.71        
H           49.67       -12.7       8.57        
H           50.93       -12.15      9.52        
H           51.13138    -12.65267   7.73252     
H           49.71       -1.53       8.16        
H           48.08       -1.82       7.9         
H           49.29688    -2.12362    6.65483     
H           53.23       -8.05       8.52        
H           46.36       -6.33       8.31        
C           47.3        -6.81       8.37        
C           48.69       -8.75       8.34        
C           47.41       -8.2        8.32        
C           55.83       -5.0        9.41        
C           54.98       -4.27       10.12       
S           55.04       -6.19       8.49        
H           52.78       -4.2        10.5        
H           55.34       -3.36       10.75       
C           53.63       -4.69       9.98        
C           53.45       -5.71       9.09        
C           59.64       -4.93       9.79        
C           59.41       -5.16       8.44        
S           58.15       -4.81       10.7        
H           57.66       -5.65       7.26        
H           60.14       -5.53       7.77        
C           58.02       -5.25       8.21        
C           57.21       -4.96       9.3         
C           63.1        -5.79       11.31       
C           62.55       -4.77       12.01       
S           61.97       -6.24       10.05       
H           60.84       -3.45       12.05       
H           62.93       -4.47       12.96       
C           61.31       -4.29       11.54       
C           60.85       -5.02       10.5        
C           68.71       -8.93       12.81       
C           68.2        -8.37       11.56       
C           67.97       -8.71       13.94       
C           66.88       -7.86       11.53       
C           66.15       -7.6        12.73       
C           66.29       -7.34       10.39       
C           66.76       -8.01       13.95       
C           66.23       -7.81       15.3        
N           64.97       -7.26       15.29       
C           64.24       -6.82       14.15       
C           66.95       -7.4        9.09        
N           68.24       -7.96       9.12        
C           68.9        -8.45       10.25       
O           66.46       -6.86       8.12        
O           70.01       -8.97       10.12       
O           66.73       -8.13       16.39       
O           63.09       -6.51       14.24       
C           64.16       -7.38       16.57       
C           69.05       -7.87       7.89        
H           64.49       -8.31       17.0        
H           63.11       -7.51       16.45       
H           64.24457    -6.51317    17.22541    
H           69.98       -7.49       8.28        
H           68.67       -7.1        7.22        
H           69.1514     -8.84783    7.41919     
H           68.42       -8.98       14.94       
H           64.77       -6.34       9.56        
C           65.09       -6.76       10.52       
C           64.91       -6.92       12.83       
C           64.32       -6.54       11.67       
C           72.17       -10.23      14.24       
C           71.85       -10.98      13.12       
S           71.01       -9.01       14.49       
H           70.18       -11.2       11.7        
H           72.44       -11.74      12.78       
C           70.57       -10.64      12.55       
C           69.98       -9.52       13.13       
C           75.35       -10.34      16.47       
C           75.13       -11.62      16.11       
S           74.22       -9.2        15.91       
H           73.56       -12.67      14.96       
H           75.73       -12.43      16.48       
C           73.92       -11.74      15.33       
C           73.34       -10.5       15.08       
C           78.87       -8.89       17.31       
C           77.98       -8.32       18.23       
S           78.04       -10.15      16.38       
H           75.68       -8.31       18.49       
H           78.3        -7.54       18.87       
C           76.6        -8.71       17.99       
C           76.51       -9.75       17.13       
C           84.94       -6.71       15.86       
C           83.77       -6.97       15.08       
C           84.76       -6.76       17.25       
C           82.59       -7.39       15.81       
C           82.49       -7.48       17.22       
C           81.49       -7.8        15.04       
C           83.65       -7.11       17.92       
C           83.68       -6.92       19.38       
N           82.5        -7.29       19.93       
C           81.31       -7.81       19.31       
C           81.44       -7.63       13.61       
N           82.55       -7.14       12.95       
C           83.77       -6.79       13.57       
O           80.54       -8.0        12.99       
O           84.56       -6.26       12.88       
O           84.66       -6.51       19.99       
O           80.38       -7.95       20.12       
C           82.43       -7.08       21.4        
C           82.66       -7.37       11.5        
H           81.46       -7.01       21.76       
H           82.87       -6.06       21.65       
H           82.86564    -7.87142    22.0099     
H           83.12       -6.53       10.99       
H           81.64       -7.32       11.08       
H           83.09269    -8.32051    11.18789    
H           85.68       -6.7        17.84       
H           79.63       -8.73       15.03       
C           80.43       -8.36       15.68       
C           81.26       -7.9        17.85       
C           80.21       -8.33       17.09       
C           88.8        -6.04       15.07       
C           88.38       -6.82       14.07       
S           87.6        -5.7        16.27       
H           86.49       -7.78       13.49       
H           88.99       -7.16       13.35       
C           87.04       -7.21       14.23       
C           86.42       -6.67       15.46       
C           92.04       -4.01       15.01       
C           91.35       -3.68       16.17       
S           91.2        -5.22       14.1        
H           89.49       -4.23       17.19       
H           91.77       -3.07       16.99       
C           90.13       -4.35       16.33       
C           89.94       -5.28       15.33       
C           95.39       -2.0        14.33       
C           95.39       -3.08       13.49       
S           93.81       -1.95       15.15       
H           94.19       -4.92       13.09       
H           96.19       -3.27       12.79       
C           94.31       -3.97       13.64       
C           93.38       -3.5        14.58       
C           99.0        3.43        14.1        
C           98.41       2.66        13.05       
C           98.87       2.99        15.43       
C           97.79       1.42        13.51       
C           97.58       1.06        14.85       
C           97.18       0.56        12.59       
C           98.19       1.9         15.83       
C           98.08       1.63        17.26       
N           97.42       0.43        17.62       
C           96.82       -0.48       16.7        
C           97.23       0.95        11.13       
N           97.74       2.15        10.76       
C           98.35       3.02        11.61       
O           96.88       0.1         10.32       
O           98.63       4.11        11.23       
O           98.55       2.41        18.04       
O           96.26       -1.49       17.03       
C           98.12       -0.22       18.75       
C           97.76       2.52        9.32        
H           99.13       -0.0        18.75       
H           98.17       -1.3        18.65       
H           97.57051    0.10113     19.63489    
H           97.58       3.55        9.14        
H           96.98       2.01        8.71        
H           98.72359    2.38829     8.82781     
H           99.54       3.43        16.14       
H           95.91       -0.98       12.17       
C           96.45       -0.53       12.98       
C           96.9        -0.11       15.22       
C           96.33       -0.87       14.28       
C           101.62      6.3         13.94       
C           100.52      6.69        14.65       
S           101.47      4.57        13.51       
H           98.65       5.8         15.32       
H           100.41      7.7         15.04       
C           99.53       5.71        14.75       
C           99.84       4.64        13.97       
C           104.22      9.21        13.45       
C           104.76      8.16        12.88       
S           102.67      8.8         14.02       
H           104.33      6.09        12.58       
H           105.71      8.24        12.36       
C           103.97      6.96        12.98       
C           102.83      7.11        13.64       
C           105.2       12.79       14.5        
C           105.76      12.56       13.27       
S           104.35      11.39       15.06       
H           106.24      10.8        11.94       
H           106.42      13.3        12.78       
C           105.67      11.21       12.81       
C           104.77      10.53       13.57       
C           105.32      18.6        17.51       
C           104.72      18.19       16.29       
C           106.12      17.69       18.19       
C           104.88      16.87       15.91       
C           105.69      15.92       16.58       
C           104.27      16.34       14.79       
C           106.28      16.34       17.81       
C           107.13      15.45       18.72       
N           107.29      14.12       18.25       
C           106.67      13.63       17.01       
C           103.31      17.11       13.93       
N           103.07      18.42       14.43       
C           103.74      18.99       15.52       
O           102.79      16.66       12.92       
O           103.28      20.04       15.91       
O           107.57      15.84       19.83       
O           107.0       12.5        16.73       
C           108.24      13.29       18.95       
C           101.74      18.9        14.07       
H           109.23      13.64       18.91       
H           108.43      12.34       18.41       
H           107.87584   13.02025    19.94132    
H           101.36      19.42       14.88       
H           101.2       18.0        13.96       
H           101.69796   19.60072    13.23614    
H           106.56      17.89       19.18       
H           103.99      14.66       13.45       
C           104.48      15.05       14.29       
C           105.89      14.59       16.15       
C           105.24      14.15       15.0        
C           106.0       22.02       19.38       
C           105.85      22.25       18.09       
S           106.02      20.3        19.66       
H           105.26      21.16       16.22       
H           105.91      23.24       17.75       
C           105.5       21.1        17.32       
C           105.63      19.96       18.03       
C           106.55      25.08       21.69       
C           106.93      24.0        22.42       
S           106.06      24.67       20.02       
H           106.99      21.83       22.08       
H           107.22      24.07       23.43       
C           106.75      22.83       21.67       
C           106.27      22.96       20.41       
C           105.8       28.94       22.37       
C           106.78      28.49       23.19       
S           105.48      27.64       21.26       
H           107.55      26.6        23.99       
H           107.23      29.14       23.96       
C           107.02      27.11       23.16       
C           106.47      26.44       22.08       
C           104.51      35.12       20.74       
C           105.66      34.49       21.08       
C           103.3       34.43       21.04       
C           105.62      33.15       21.47       
C           104.4       32.39       21.62       
C           106.83      32.47       21.71       
C           103.23      33.15       21.4        
C           101.87      32.51       21.24       
N           101.88      31.12       21.47       
C           103.03      30.4        21.86       
C           108.2       33.17       21.64       
N           108.14      34.54       21.38       
C           106.98      35.21       21.08       
O           109.3       32.61       21.88       
O           107.09      36.4        20.89       
O           100.88      33.17       20.83       
O           102.88      29.23       22.16       
C           100.64      30.39       21.43       
C           109.41      35.23       21.1        
H           99.98       30.9        22.05       
H           100.75      29.35       21.76       
H           100.16448   30.43323    20.45015    
H           109.22      35.89       20.25       
H           110.18      34.53       20.78       
H           109.74092   35.8992     21.89421    
H           102.43      34.78       20.63       
H           107.71      30.67       22.27       
C           106.77      31.2        22.17       
C           104.35      31.04       21.9        
C           105.54      30.4        22.22       
C           103.47      37.72       17.97       
C           103.7       38.44       19.18       
S           103.71      36.12       18.2        
H           104.28      37.98       21.21       
H           103.6       39.47       19.25       
C           104.2       37.6        20.26       
C           104.23      36.28       19.85       
C           102.32      38.01       14.28       
C           102.18      39.3        14.8        
S           103.11      36.98       15.37       
H           102.57      40.33       16.66       
H           101.69      40.03       14.28       
C           102.75      39.4        16.08       
C           103.18      38.19       16.62       
C           100.97      35.99       11.23       
C           101.26      37.25       10.9        
S           101.48      35.83       12.88       
H           101.79      39.22       11.73       
H           100.9       37.65       9.94        
C           101.69      38.15       11.88       
C           101.88      37.5        13.02       
C           98.75       31.49       6.71        
C           99.63       32.58       6.59        
C           98.39       31.18       8.0         
C           99.89       33.4        7.79        
C           99.42       33.12       9.1         
C           100.8       34.55       7.78        
C           98.67       31.93       9.18        
C           98.05       31.37       10.43       
N           98.3        32.14       11.61       
C           99.01       33.36       11.53       
C           101.42      35.06       6.49        
N           100.98      34.32       5.41        
C           100.16      33.18       5.31        
O           102.37      35.88       6.39        
O           99.97       32.73       4.17        
O           97.57       30.19       10.46       
O           99.0        34.16       12.48       
C           97.21       32.16       12.61       
C           101.42      34.87       4.12        
H           96.27       31.94       12.16       
H           97.04       33.24       12.8        
H           97.42248    31.59338    13.51659    
H           101.68      34.08       3.38        
H           102.36      35.46       4.27        
H           100.62944   35.40417    3.59296     
H           97.99       30.2        8.22        
H           101.58      36.25       8.69        
C           100.99      35.37       8.9         
C           99.68       33.92       10.26       
C           100.44      35.1        10.21       
C           96.79       28.85       4.26        
C           97.99       29.15       3.72        
S           96.78       29.6        5.87        
H           99.86       30.34       4.11        
H           98.3        28.82       2.75        
C           98.85       30.05       4.49        
C           98.33       30.37       5.78        
C           93.85       27.26       2.1         
C           93.62       26.94       3.43        
S           95.39       28.18       1.99        
H           94.77       27.16       5.4         
H           92.81       26.35       3.72        
C           94.77       27.27       4.27        
C           95.74       28.07       3.66        
H           58.53       12.63       22.09       
H           93.0        27.3        1.35        
