512

C           74.71       40.34       2.32        
C           73.71       41.07       1.73        
S           76.06       40.33       1.27        
H           73.43       42.47       -0.04       
H           72.72       41.29       2.11        
C           74.1        41.74       0.5         
C           75.33       41.39       0.11        
C           74.82       37.54       8.36        
C           74.19       37.19       7.13        
C           75.59       38.68       8.41        
C           74.24       38.02       6.0         
C           75.07       39.16       6.06        
C           73.73       37.74       4.78        
C           75.71       39.44       7.31        
C           76.62       40.57       7.54        
N           76.77       41.42       6.44        
C           76.15       41.2        5.13        
C           72.9        36.52       4.56        
N           72.81       35.66       5.64        
C           73.35       35.95       6.94        
O           72.47       36.21       3.46        
O           73.31       35.0        7.7         
O           77.23       40.67       8.58        
O           76.32       42.11       4.34        
C           77.66       42.53       6.54        
C           71.83       34.54       5.63        
H           78.37       42.28       7.23        
H           78.12       42.69       5.58        
H           77.16736    43.45977    6.82448     
H           72.17       33.72       6.31        
H           71.85       34.1        4.67        
H           70.8651     34.92596    5.95878     
H           75.88       39.07       9.41        
H           73.41       38.28       2.81        
C           73.85       38.57       3.72        
C           75.18       40.04       4.92        
C           74.58       39.75       3.71        
C           74.13       36.2        12.06       
C           75.42       35.98       11.66       
S           73.28       37.0        10.75       
H           76.74       36.47       9.88        
H           76.13       35.52       12.31       
C           75.74       36.36       10.31       
C           74.65       36.94       9.73        
C           71.89       35.51       15.1        
C           73.22       35.46       15.59       
S           71.77       35.85       13.41       
H           75.21       35.91       14.57       
H           73.52       35.35       16.6        
C           74.12       35.84       14.48       
C           73.51       36.0        13.3        
C           68.58       35.01       17.18       
C           69.32       33.92       17.25       
S           69.4        36.2        16.2        
H           71.16       32.99       16.44       
H           69.06       33.06       17.83       
C           70.57       33.88       16.5        
C           70.67       35.1        15.82       
C           62.83       35.48       20.38       
C           64.14       35.28       20.87       
C           62.67       36.01       19.15       
C           65.2        35.3        19.94       
C           65.04       35.65       18.58       
C           66.52       34.89       20.3        
C           63.72       36.07       18.25       
C           63.39       36.48       16.84       
N           64.45       36.48       15.83       
C           65.76       36.09       16.24       
C           66.81       34.61       21.68       
N           65.75       34.55       22.55       
C           64.39       34.76       22.23       
O           67.94       34.29       22.05       
O           63.53       34.17       22.89       
O           62.27       36.78       16.48       
O           66.47       36.1        15.29       
C           64.1        36.09       14.48       
C           65.92       33.88       23.88       
H           63.08       35.78       14.5        
H           64.71       35.28       14.11       
H           64.25802    36.89448    13.76171    
H           65.22       34.31       24.6        
H           66.91       34.17       24.31       
H           65.82772    32.79394    23.8729     
H           61.7        36.35       18.79       
H           68.49       34.48       19.7        
C           67.51       34.79       19.33       
C           66.09       35.61       17.55       
C           67.31       35.19       17.96       
C           59.88       36.26       22.78       
C           59.28       35.71       21.62       
S           61.53       36.56       22.55       
H           60.16       34.95       19.73       
H           58.2        35.69       21.45       
C           60.24       35.33       20.71       
C           61.56       35.55       21.15       
C           57.48       37.31       25.68       
C           58.76       37.73       26.01       
S           57.55       36.41       24.18       
H           60.81       37.74       25.1        
H           58.89       38.31       26.94       
C           59.75       37.42       25.06       
C           59.26       36.68       23.99       
C           53.74       37.53       26.75       
C           54.49       37.99       27.76       
S           54.79       37.11       25.42       
H           56.68       38.36       28.2        
H           54.02       38.4        28.65       
C           55.93       38.04       27.46       
C           56.19       37.5        26.32       
C           47.35       37.08       26.02       
C           48.22       38.14       26.11       
C           47.87       35.8        26.39       
C           49.56       37.93       26.46       
C           50.07       36.63       26.7        
C           50.43       39.02       26.59       
C           49.16       35.52       26.62       
C           49.62       34.12       26.81       
N           51.01       33.89       26.9        
C           51.89       34.96       27.0        
C           50.11       40.41       26.4        
N           48.81       40.59       25.93       
C           47.87       39.55       25.7        
O           50.87       41.33       26.69       
O           46.88       39.74       25.07       
O           48.81       33.26       26.81       
O           53.11       34.7        27.18       
C           51.58       32.6        26.45       
C           48.41       41.9        25.46       
H           52.66       32.68       26.06       
H           51.01       32.33       25.54       
H           51.55189    31.86913    27.25817    
H           47.95       41.89       24.45       
H           49.34       42.39       25.12       
H           47.93632    42.55479    26.19142    
H           47.17       34.98       26.42       
H           52.44       39.57       26.75       
C           51.77       38.75       26.76       
C           51.4        36.34       26.83       
C           52.27       37.49       26.82       
C           43.62       36.46       24.88       
C           43.61       37.53       25.72       
S           45.22       35.77       24.82       
H           45.17       38.77       26.85       
H           42.72       38.09       25.81       
C           44.95       37.85       26.2        
C           45.96       37.03       25.69       
C           41.34       34.97       22.07       
C           40.48       35.48       22.97       
S           42.95       35.01       22.68       
H           40.63       36.68       24.9        
H           39.41       35.52       22.86       
C           41.12       36.13       24.11       
C           42.52       35.85       24.11       
C           41.25       33.1        18.59       
C           40.56       34.28       18.47       
S           41.89       32.98       20.2        
H           39.96       36.03       19.85       
H           40.02       34.54       17.56       
C           40.51       35.07       19.7        
C           41.11       34.43       20.74       
C           43.28       29.56       13.51       
C           43.45       30.88       13.87       
C           42.67       28.7        14.48       
C           42.85       31.35       15.1        
C           42.17       30.47       16.05       
C           42.84       32.66       15.35       
C           42.17       29.11       15.69       
C           41.61       28.07       16.67       
N           40.94       28.58       17.78       
C           41.0        29.92       18.2        
C           43.54       33.68       14.56       
N           44.3        33.12       13.51       
C           44.17       31.83       13.05       
O           43.65       34.76       15.0        
O           44.93       31.47       12.14       
O           41.62       26.88       16.38       
O           40.4        30.26       19.22       
C           40.5        27.59       18.83       
C           45.49       33.87       13.04       
H           40.26       28.07       19.74       
H           41.37       27.06       19.0        
H           39.57074    27.10456    18.5318     
H           46.42       33.25       12.84       
H           45.74       34.56       13.78       
H           45.25283    34.35152    12.09132    
H           42.53       27.68       14.29       
H           42.39       34.16       16.8        
C           42.22       33.12       16.52       
C           41.62       30.88       17.29       
C           41.63       32.24       17.49       
C           44.72       27.32       10.67       
C           43.94       28.28       10.11       
S           44.79       27.44       12.43       
H           42.67       29.96       10.83       
H           43.86       28.43       9.03        
C           43.29       29.14       11.07       
C           43.7        28.81       12.37       
C           47.47       24.92       9.5         
C           46.66       25.09       8.41        
S           46.73       25.51       10.91       
H           44.9        26.36       7.97        
H           47.07       24.75       7.47        
C           45.6        26.02       8.68        
C           45.51       26.32       9.96        
C           51.07       23.22       9.27        
C           50.73       23.4        10.63       
S           49.7        23.73       8.28        
H           49.16       24.41       11.8        
H           51.42       23.14       11.39       
C           49.53       24.18       10.79       
C           48.77       24.25       9.63        
C           57.07       21.47       7.17        
C           56.0        22.08       6.57        
C           56.99       21.17       8.51        
C           54.84       22.26       7.32        
C           54.67       21.85       8.64        
C           53.69       22.83       6.75        
C           55.86       21.25       9.29        
C           56.0        20.99       10.74       
N           54.71       20.96       11.39       
C           53.43       21.27       10.79       
C           53.69       23.38       5.39        
N           54.94       23.33       4.71        
C           56.07       22.65       5.19        
O           52.67       23.85       4.9         
O           57.09       22.7        4.63        
O           57.07       20.69       11.3        
O           52.39       20.83       11.37       
C           54.66       20.31       12.71       
C           55.17       24.43       3.76        
H           55.26       19.42       12.52       
H           53.59       20.11       13.06       
H           55.14778    21.00279    13.39572    
H           56.12       24.84       3.94        
H           54.42       25.13       3.95        
H           55.12842    24.1528     2.70666     
H           57.94       20.79       8.95        
H           51.77       23.65       7.01        
C           52.54       23.02       7.48        
C           53.45       21.94       9.4         
C           52.35       22.58       8.77        
C           59.62       19.18       5.23        
C           60.38       20.05       5.95        
S           57.91       19.53       5.35        
H           59.99       21.72       7.4         
H           61.46       20.14       5.93        
C           59.51       20.97       6.7         
C           58.17       20.79       6.5         
C           60.94       17.15       2.16        
C           59.86       16.5        2.6         
S           61.49       18.41       3.2         
H           58.4        16.98       4.22        
H           59.44       15.65       2.21        
C           59.34       17.17       3.75        
C           60.08       18.2        4.25        
C           63.48       16.0        -0.71       
C           62.17       15.79       -1.14       
S           63.46       16.84       0.84        
H           60.1        16.21       -0.48       
H           61.97       15.25       -2.11       
C           61.16       16.25       -0.22       
C           61.66       16.86       0.92        
C           68.51       14.39       -4.73       
C           68.28       14.17       -3.4        
C           67.56       15.12       -5.45       
C           67.03       14.64       -2.81       
C           66.07       15.36       -3.54       
C           66.75       14.37       -1.45       
C           66.39       15.59       -4.92       
C           65.54       16.42       -5.77       
N           64.36       16.91       -5.21       
C           63.96       16.67       -3.85       
C           67.72       13.7        -0.53       
N           68.91       13.27       -1.15       
C           69.12       13.36       -2.52       
O           67.5        13.49       0.6         
O           70.06       12.67       -3.03       
O           65.93       16.74       -6.89       
O           62.86       17.08       -3.51       
C           63.3        17.39       -6.16       
C           70.02       12.77       -0.3        
H           62.35       16.99       -5.91       
H           63.55       17.01       -7.15       
H           63.3283     18.47963    -6.16       
H           70.17       11.69       -0.49       
H           69.76       12.86       0.78        
H           70.90668    13.39137    -0.42567    
H           67.73       15.47       -6.47       
H           65.48       14.62       0.18        
C           65.57       14.84       -0.92       
C           64.9        15.96       -2.88       
C           64.64       15.67       -1.56       
C           72.03       14.28       -6.35       
C           71.15       14.04       -7.36       
S           71.25       14.4        -4.8        
H           68.92       13.86       -7.4        
H           71.4        13.92       -8.41       
C           69.79       14.03       -6.83       
C           69.71       14.2        -5.51       
C           75.89       15.06       -5.98       
C           75.72       14.54       -7.2        
S           74.41       14.96       -5.09       
H           73.99       13.79       -8.47       
H           76.52       14.29       -7.91       
C           74.28       14.21       -7.58       
C           73.47       14.45       -6.49       
C           79.35       16.43       -4.92       
C           78.49       16.57       -3.92       
S           78.63       15.43       -6.11       
H           76.38       15.96       -3.4        
H           78.74       17.17       -3.01       
C           77.19       15.98       -4.14       
C           77.07       15.55       -5.39       
C           85.7        18.43       -4.3        
C           84.75       17.91       -3.46       
C           85.27       18.73       -5.54       
C           83.38       17.64       -3.88       
C           82.95       17.84       -5.2        
C           82.44       17.01       -3.06       
C           83.97       18.43       -6.03       
C           83.66       18.79       -7.41       
N           82.35       18.64       -7.85       
C           81.37       17.93       -7.13       
C           82.73       16.72       -1.65       
N           83.93       17.28       -1.23       
C           84.98       17.73       -1.99       
O           81.99       16.19       -0.83       
O           86.1        17.88       -1.56       
O           84.48       19.29       -8.16       
O           80.23       17.84       -7.57       
C           82.1        18.82       -9.26       
C           83.99       17.73       0.21        
H           81.42       18.08       -9.68       
H           83.05       18.6        -9.82       
H           81.83464    19.83123    -9.56839    
H           84.92       17.54       0.73        
H           83.14       17.33       0.76        
H           83.79889    18.79582    0.33496     
H           85.94       19.24       -6.19       
H           80.58       16.05       -2.88       
C           81.24       16.61       -3.56       
C           81.69       17.51       -5.7        
C           80.81       16.88       -4.82       
C           88.44       21.08       -3.03       
C           89.09       20.01       -3.56       
S           86.75       20.83       -3.1        
H           88.51       18.2        -4.77       
H           90.18       19.93       -3.57       
C           88.18       19.1        -4.26       
C           86.87       19.27       -3.94       
C           90.36       23.99       -1.37       
C           89.08       24.18       -1.06       
S           90.61       22.59       -2.32       
H           87.17       23.24       -1.63       
H           88.8        25.08       -0.56       
C           88.27       23.19       -1.65       
C           88.94       22.15       -2.25       
C           92.95       26.93       -0.88       
C           93.59       25.76       -0.68       
S           91.22       26.58       -1.19       
H           93.19       23.53       -0.85       
H           94.69       25.71       -0.63       
C           92.75       24.54       -0.89       
C           91.45       24.86       -1.1        
C           96.03       32.81       -1.09       
C           95.07       32.29       -0.23       
C           96.78       31.94       -1.91       
C           94.67       30.97       -0.47       
C           95.33       30.07       -1.35       
C           93.47       30.45       0.17        
C           96.47       30.57       -2.04       
C           97.28       29.76       -3.03       
N           96.73       28.48       -3.28       
C           95.61       27.94       -2.69       
C           92.67       31.24       1.16        
N           93.25       32.46       1.47        
C           94.32       33.14       0.81        
O           91.72       30.74       1.74        
O           94.62       34.22       1.13        
O           98.25       30.27       -3.63       
O           95.07       26.94       -3.05       
C           97.56       27.65       -4.18       
C           92.5        33.37       2.41        
H           97.57       28.21       -5.11       
H           97.19       26.6        -4.36       
H           98.55618    27.44656    -3.78714    
H           93.21       33.95       3.06        
H           91.93       32.71       3.15        
H           91.76472    34.02044    1.93631     
H           97.63       32.21       -2.53       
H           92.18       28.99       0.43        
C           93.09       29.17       -0.01       
C           94.81       28.72       -1.63       
C           93.64       28.25       -0.93       
C           97.88       36.24       -0.71       
C           97.52       36.09       -2.01       
S           97.46       34.87       0.26        
H           96.48       34.51       -3.2        
H           97.8        36.74       -2.79       
C           96.83       34.85       -2.22       
C           96.52       34.2        -1.08       
C           100.61      38.85       0.4         
C           99.57       38.89       1.27        
S           100.25      37.73       -0.89       
H           97.65       37.86       1.63        
H           99.65       39.4        2.22        
C           98.47       37.97       0.97        
C           98.68       37.29       -0.14       
C           103.72      41.4        0.06        
C           104.09      40.09       -0.27       
S           102.05      41.24       0.67        
H           103.33      38.02       -0.27       
H           105.06      39.89       -0.57       
C           103.12      39.09       -0.02       
C           101.87      39.56       0.38        
C           106.77      47.26       0.16        
C           105.96      46.53       1.09        
C           107.16      46.6        -1.02       
C           105.53      45.23       0.83        
C           105.92      44.57       -0.35       
C           104.72      44.49       1.72        
C           106.67      45.33       -1.31       
C           107.13      44.7        -2.6        
N           106.56      43.51       -2.92       
C           105.65      42.78       -2.1        
C           104.3       45.08       3.0         
N           104.66      46.46       3.26        
C           105.44      47.21       2.34        
O           103.66      44.41       3.77        
O           105.67      48.39       2.57        
O           107.86      45.33       -3.34       
O           105.14      41.83       -2.55       
C           106.51      43.22       -4.4        
C           103.77      47.16       4.16        
H           106.35      44.19       -4.86       
H           105.67      42.57       -4.67       
H           107.44398   42.82968    -4.80426    
H           104.3       47.89       4.72        
H           103.4       46.45       4.86        
H           102.86149   47.50676    3.6676      
H           107.69      47.16       -1.78       
H           103.82      42.7        2.17        
C           104.42      43.18       1.39        
C           105.36      43.29       -0.77       
C           104.54      42.6        0.09        
C           108.08      50.93       0.14        
C           108.79      50.24       1.04        
S           107.07      49.89       -0.79       
H           108.82      48.19       1.82        
H           109.66      50.69       1.6         
C           108.36      48.89       1.14        
C           107.39      48.54       0.24        
C           108.73      54.69       -0.6        
C           107.66      54.37       -1.27       
S           109.33      53.41       0.42        
H           106.53      52.44       -1.55       
H           107.16      55.07       -1.95       
C           107.34      53.03       -1.08       
C           108.15      52.35       -0.25       
C           109.83      58.45       -0.17       
C           110.92      57.7        0.1         
S           108.47      57.48       -0.68       
H           111.43      55.63       0.31        
H           111.78      58.08       0.52        
C           110.64      56.29       0.06        
C           109.39      56.02       -0.39       
C           111.27      64.84       -0.24       
C           111.46      63.84       -1.15       
C           110.24      64.64       0.68        
C           110.87      62.55       -0.91       
C           109.95      62.26       0.17        
C           111.0       61.45       -1.81       
C           109.55      63.43       0.88        
C           108.51      63.38       1.89        
N           108.13      62.08       2.28        
C           108.47      60.85       1.59        
C           111.76      61.62       -3.08       
N           112.55      62.85       -3.17       
C           112.43      63.9        -2.28       
O           111.92      60.66       -3.85       
O           113.13      64.86       -2.48       
O           108.1       64.32       2.46        
O           108.09      59.77       2.06        
C           107.31      62.0        3.47        
C           113.29      63.01       -4.46       
H           107.59      62.74       4.18        
H           107.49      61.05       4.0         
H           106.25152   62.05645    3.21596     
H           113.31      64.05       -4.79       
H           112.51      62.72       -5.15       
H           114.18626   62.41249    -4.62675    
H           109.97      65.48       1.32        
H           110.88      59.46       -2.11       
C           110.57      60.23       -1.45       
C           109.47      60.94       0.54        
C           109.98      59.91       -0.19       
C           113.46      67.96       0.69        
C           113.05      68.16       -0.62       
S           112.85      66.49       1.38        
H           111.76      67.01       -1.98       
H           113.26      69.02       -1.25       
C           112.15      67.12       -1.01       
C           112.02      66.09       -0.1        
C           115.88      70.8        1.93        
C           115.53      69.99       3.01        
S           115.15      70.07       0.59        
H           114.16      68.38       3.6         
H           115.79      70.19       4.05        
C           114.66      68.89       2.81        
C           114.42      68.76       1.43        
H           75.63       41.36       -0.95       
H           116.11      71.92       1.94        
