512

C           65.32       10.04       22.81       
C           65.42       9.67        24.11       
S           66.88       10.06       22.17       
H           66.87       9.02        25.56       
H           64.65       9.62        24.84       
C           66.72       9.37        24.56       
C           67.68       9.39        23.59       
C           59.35       11.31       20.23       
C           60.42       10.46       19.85       
C           59.61       12.17       21.26       
C           61.63       10.44       20.59       
C           61.91       11.34       21.63       
C           62.69       9.6         20.17       
C           60.84       12.21       21.94       
C           60.95       13.19       23.08       
N           62.14       13.2        23.83       
C           63.24       12.38       23.52       
C           62.67       8.72        19.02       
N           61.49       8.8         18.26       
C           60.35       9.58        18.64       
O           63.45       7.72        19.01       
O           59.48       9.6         17.75       
O           60.02       13.88       23.32       
O           64.31       12.58       24.09       
C           62.26       14.42       24.64       
C           61.47       7.99        17.07       
H           63.19       14.92       24.4        
H           61.61       15.26       24.36       
H           62.0323     14.28779    25.69772    
H           60.44       7.63        16.82       
H           62.01       7.11        17.26       
H           61.97588    8.48142     16.23892    
H           58.88       12.87       21.57       
H           64.58       8.85        20.62       
C           63.85       9.57        20.98       
C           63.09       11.35       22.46       
C           64.1        10.46       22.05       
C           55.58       11.65       19.13       
C           55.95       10.36       19.19       
S           56.96       12.7        19.41       
H           57.75       9.25        19.69       
H           55.23       9.56        19.23       
C           57.3        10.19       19.48       
C           57.95       11.34       19.8        
C           51.92       12.95       19.19       
C           52.68       13.92       18.59       
S           52.92       11.72       19.82       
H           54.76       14.06       17.85       
H           52.29       14.83       18.23       
C           54.01       13.51       18.44       
C           54.29       12.29       18.98       
C           48.24       14.09       20.11       
C           48.74       13.23       21.08       
S           49.41       14.18       18.78       
H           50.61       12.29       21.49       
H           48.15       12.97       21.96       
C           50.02       12.76       20.79       
C           50.53       13.18       19.61       
C           42.14       16.27       19.13       
C           42.6        15.06       19.49       
C           43.02       17.28       18.92       
C           43.97       14.83       19.74       
C           44.85       15.94       19.58       
C           44.54       13.62       20.07       
C           44.35       17.16       19.13       
C           45.17       18.43       19.01       
N           46.52       18.24       19.27       
C           47.11       17.02       19.57       
C           43.66       12.41       20.19       
N           42.23       12.64       19.96       
C           41.65       13.89       19.64       
O           44.12       11.28       20.42       
O           40.39       13.93       19.51       
O           44.69       19.42       18.71       
O           48.3        17.01       19.8        
C           47.45       19.36       18.96       
C           41.44       11.44       19.74       
H           46.93       19.96       18.25       
H           48.37       18.98       18.45       
H           47.74757    19.89846    19.85979    
H           40.41       11.64       20.01       
H           41.82       10.66       20.4        
H           41.51908    11.06617    18.71917    
H           42.61       18.31       18.59       
H           46.28       12.53       20.54       
C           45.9        13.53       20.25       
C           46.26       15.81       19.72       
C           46.83       14.59       20.09       
C           39.03       17.18       16.9        
C           39.0        17.96       18.06       
S           40.36       16.08       16.95       
H           40.28       18.13       19.9        
H           38.31       18.81       18.26       
C           40.03       17.64       19.0        
C           40.8        16.61       18.6        
C           37.62       17.02       13.31       
C           36.56       17.27       14.11       
S           39.1        16.92       14.18       
H           36.13       17.57       16.3        
H           35.55       17.41       13.62       
C           36.92       17.4        15.53       
C           38.27       17.14       15.69       
C           38.38       15.42       9.88        
C           37.25       16.14       9.73        
S           39.02       15.71       11.47       
H           35.95       17.53       10.94       
H           36.73       16.22       8.81        
C           36.86       16.91       10.91       
C           37.73       16.78       11.89       
C           42.24       11.99       5.77        
C           41.6        11.73       6.98        
C           41.78       13.17       5.11        
C           40.77       12.66       7.62        
C           40.39       13.87       6.97        
C           40.15       12.39       8.87        
C           40.95       14.1        5.67        
C           40.66       15.32       4.88        
N           39.8        16.27       5.46        
C           39.27       16.05       6.74        
C           40.48       11.13       9.58        
N           41.44       10.27       9.0         
C           41.99       10.53       7.7         
O           39.91       10.89       10.62       
O           42.76       9.77        7.31        
O           41.08       15.53       3.72        
O           38.43       16.85       7.07        
C           39.97       17.64       5.01        
C           41.35       8.79        9.28        
H           41.07       17.78       5.02        
H           39.52       18.32       5.71        
H           39.4829     17.84774    4.05728     
H           41.11       8.36        8.3         
H           40.39       8.54        9.79        
H           42.21082    8.3102      9.74569     
H           42.35       13.49       4.22        
H           38.9        13.15       10.49       
C           39.32       13.34       9.46        
C           39.53       14.82       7.59        
C           38.96       14.55       8.86        
C           44.06       9.32        3.51        
C           44.77       10.4        3.51        
S           42.57       9.62        4.28        
H           44.69       12.37       4.55        
H           45.8        10.37       3.19        
C           44.22       11.46       4.29        
C           43.03       11.11       4.94        
C           45.54       5.87        2.5         
C           44.29       5.86        2.07        
S           45.87       7.3         3.43        
H           42.55       7.13        2.22        
H           43.97       5.07        1.34        
C           43.61       7.01        2.43        
C           44.34       7.96        3.11        
C           47.59       2.6         2.36        
C           48.29       3.53        3.11        
S           46.11       3.29        1.81        
H           48.18       5.68        3.65        
H           49.33       3.28        3.56        
C           47.7        4.78        3.21        
C           46.51       4.82        2.5         
C           50.57       -3.04       1.16        
C           49.85       -2.23       0.38        
C           50.61       -2.76       2.51        
C           49.17       -1.12       0.95        
C           49.25       -0.83       2.34        
C           48.43       -0.17       0.18        
C           50.01       -1.71       3.1         
C           50.24       -1.61       4.61        
N           49.61       -0.44       5.17        
C           48.77       0.45        4.46        
C           48.3        -0.28       -1.29       
N           48.96       -1.36       -1.86       
C           49.71       -2.41       -1.1        
O           47.74       0.6         -1.94       
O           50.12       -3.38       -1.67       
O           51.03       -2.34       5.16        
O           48.29       1.4         5.09        
C           49.2        -0.66       6.53        
C           49.08       -1.39       -3.31       
H           48.82       -1.7        6.61        
H           48.34       -0.07       6.92        
H           50.00268    -0.58388    7.26349     
H           50.13       -1.62       -3.62       
H           48.92       -0.35       -3.75       
H           48.45344    -2.14049    -3.79197    
H           51.11       -3.49       3.17        
H           47.46       1.76        0.12        
C           47.85       0.93        0.76        
C           48.62       0.32        2.95        
C           48.0        1.27        2.12        
C           53.23       -5.79       0.14        
C           52.0        -6.16       -0.35       
S           53.1        -4.26       0.92        
H           49.92       -5.55       -0.04       
H           51.88       -7.13       -0.89       
C           50.98       -5.34       0.15        
C           51.36       -4.22       0.88        
C           56.96       -6.81       -0.07       
C           56.3        -7.7        -0.8        
S           55.84       -5.76       0.73        
H           54.14       -8.05       -1.46       
H           56.74       -8.43       -1.41       
C           54.86       -7.46       -0.9        
C           54.5        -6.38       -0.16       
C           60.77       -7.19       0.58        
C           60.21       -6.43       1.54        
S           59.52       -7.62       -0.6        
H           58.27       -5.8        2.29        
H           60.84       -6.16       2.45        
C           58.83       -6.21       1.48        
C           58.34       -6.7        0.31        
C           67.17       -8.76       0.75        
C           66.25       -8.43       -0.24       
C           66.63       -8.99       2.07        
C           64.89       -8.32       -0.01       
C           64.36       -8.46       1.36        
C           63.97       -7.83       -0.98       
C           65.32       -8.73       2.4         
C           64.94       -8.93       3.79        
N           63.59       -8.6        4.14        
C           62.66       -8.2        3.12        
C           64.44       -7.42       -2.33       
N           65.85       -7.51       -2.54       
C           66.73       -7.98       -1.57       
O           63.77       -6.77       -3.19       
O           67.88       -7.91       -1.92       
O           65.85       -9.15       4.6         
O           61.52       -8.13       3.46        
C           63.09       -8.86       5.47        
C           66.29       -7.1        -3.9        
H           63.56       -9.72       5.85        
H           62.03       -9.1        5.44        
H           63.17262    -7.97188    6.09651     
H           67.3        -6.74       -3.86       
H           65.64       -6.39       -4.24       
H           66.2465     -7.91921    -4.61771    
H           67.32       -9.33       2.81        
H           62.03       -7.1        -1.36       
C           62.67       -7.54       -0.6        
C           63.05       -8.07       1.69        
C           62.15       -7.68       0.7         
C           71.15       -9.25       0.95        
C           70.59       -9.92       -0.09       
S           69.88       -8.29       1.67        
H           68.61       -10.2       -0.96       
H           71.18       -10.42      -0.84       
C           69.19       -9.78       -0.16       
C           68.62       -9.01       0.72        
C           74.71       -8.82       2.59        
C           74.76       -9.79       1.66        
S           73.09       -8.23       2.65        
H           73.38       -10.85      0.15        
H           75.68       -10.36      1.38        
C           73.54       -10.1       0.96        
C           72.55       -9.26       1.35        
C           77.93       -6.57       3.48        
C           77.13       -6.75       4.59        
S           77.09       -7.47       2.23        
H           75.24       -7.79       5.2         
H           77.37       -6.23       5.52        
C           76.03       -7.66       4.46        
C           75.89       -8.14       3.25        
C           83.4        -2.98       3.89        
C           82.3        -2.85       3.05        
C           83.51       -3.99       4.86        
C           81.3        -3.81       3.21        
C           81.35       -4.81       4.26        
C           80.12       -3.83       2.42        
C           82.49       -4.89       5.07        
C           82.61       -5.9        6.12        
N           81.6        -6.87       6.32        
C           80.5        -6.85       5.51        
C           79.93       -2.75       1.4         
N           80.94       -1.8        1.26        
C           82.14       -1.77       2.01        
O           78.89       -2.73       0.78        
O           82.96       -0.98       1.67        
O           83.7        -5.97       6.74        
O           79.67       -7.64       5.79        
C           82.16       -8.24       6.56        
C           80.9        -1.04       0.02        
H           83.0        -8.17       5.92        
H           81.57       -9.04       6.07        
H           82.37097    -8.41581    7.61484     
H           81.24       -0.07       0.26        
H           79.87       -1.0        -0.25       
H           81.41554    -1.42494    -0.85985    
H           84.41       -3.93       5.51        
H           78.27       -4.73       2.03        
C           79.16       -4.81       2.59        
C           80.32       -5.76       4.41        
C           79.2        -5.83       3.54        
C           86.69       -1.04       3.77        
C           85.68       -0.22       4.2         
S           86.1        -2.58       3.39        
H           83.52       -0.46       4.82        
H           85.9        0.75        4.56        
C           84.46       -0.86       4.4         
C           84.48       -2.13       3.98        
C           90.0        0.81        2.9         
C           90.24       -0.48       2.9         
S           88.32       1.09        3.36        
H           89.16       -2.37       3.4         
H           91.26       -0.96       2.89        
C           89.17       -1.28       3.32        
C           87.97       -0.61       3.39        
C           91.5        4.22        2.17        
C           92.48       3.31        2.13        
S           90.07       3.38        2.61        
H           92.76       1.11        2.01        
H           93.53       3.57        2.15        
C           92.11       1.97        2.05        
C           90.79       1.88        2.36        
C           92.17       10.74       2.41        
C           92.62       9.75        3.21        
C           91.58       10.42       1.17        
C           92.28       8.36        2.92        
C           91.76       8.02        1.66        
C           92.58       7.32        3.87        
C           91.43       9.14        0.81        
C           90.97       8.9         -0.54       
N           90.86       7.51        -1.01       
C           91.05       6.37        -0.15       
C           93.19       7.57        5.19        
N           93.59       8.92        5.46        
C           93.35       10.01       4.53        
O           93.53       6.67        5.87        
O           93.76       11.08       4.88        
O           90.75       9.86        -1.33       
O           90.8        5.22        -0.56       
C           90.45       7.24        -2.44       
C           94.68       9.14        6.46        
H           89.46       7.79        -2.59       
H           90.22       6.19        -2.58       
H           91.14068    7.61987     -3.19284    
H           95.53       9.89        6.12        
H           95.15       8.2         6.75        
H           94.27784    9.61272     7.35605     
H           91.39       11.24       0.46        
H           92.51       5.17        4.18        
C           92.26       6.01        3.51        
C           91.48       6.63        1.3         
C           91.8        5.65        2.25        
C           92.94       14.47       3.49        
C           91.75       14.09       3.94        
S           93.63       13.22       2.55        
H           90.35       12.36       3.92        
H           91.14       14.72       4.63        
C           91.3        12.76       3.63        
C           92.2        12.21       2.75        
C           95.32       17.54       4.21        
C           94.04       17.91       4.53        
S           95.35       15.94       3.51        
H           92.1        16.87       4.55        
H           93.78       18.83       5.04        
C           93.11       16.88       4.28        
C           93.66       15.75       3.71        
C           98.21       20.1        4.99        
C           98.64       19.3        3.95        
S           96.57       19.69       5.39        
H           97.94       17.5        2.95        
H           99.68       19.34       3.54        
C           97.74       18.33       3.62        
C           96.55       18.34       4.36        
C           102.25      24.8        7.22        
C           101.52      23.81       7.88        
C           102.53      24.69       5.84        
C           100.82      22.88       7.04        
C           100.9       22.91       5.61        
C           99.95       21.97       7.61        
C           101.85      23.76       5.04        
C           102.02      23.94       3.62        
N           101.02      23.22       2.85        
C           100.03      22.35       3.4         
C           99.68       21.98       9.05        
N           100.48      22.85       9.83        
C           101.41      23.79       9.38        
O           98.88       21.29       9.63        
O           102.1       24.36       10.17       
O           102.75      24.71       3.03        
O           99.1        22.03       2.72        
C           100.89      23.46       1.4         
C           99.87       23.23       11.14       
H           101.24      24.38       1.06        
H           99.81       23.49       1.16        
H           101.33389   22.69013    0.76884     
H           100.58      23.26       11.91       
H           99.12       22.5        11.45       
H           99.40799    24.21702    11.119      
H           103.27      25.31       5.33        
H           98.32       20.65       7.39        
C           99.12       21.19       6.84        
C           100.0       22.08       4.91        
C           99.08       21.23       5.54        
C           104.33      27.88       8.59        
C           103.39      28.28       7.64        
S           104.24      26.12       8.83        
H           101.81      27.38       6.43        
H           103.23      29.35       7.42        
C           102.6       27.25       7.16        
C           102.85      26.07       7.76        
C           106.62      30.71       9.9         
C           107.16      29.55       10.44       
S           105.16      30.38       9.08        
H           106.64      27.37       10.28       
H           108.12      29.53       10.96       
C           106.36      28.39       10.12       
C           105.29      28.69       9.32        
C           107.98      34.42       9.42        
C           108.25      34.06       10.68       
S           107.14      33.08       8.71        
H           107.83      32.46       12.17       
H           108.77      34.72       11.37       
C           107.66      32.79       11.11       
C           107.09      32.09       10.11       
C           110.81      39.84       7.31        
C           109.5       39.55       7.52        
C           111.8       38.86       7.47        
C           109.15      38.22       7.81        
C           110.18      37.25       8.06        
C           107.82      37.82       8.04        
C           111.52      37.62       7.89        
C           112.68      36.66       8.11        
N           112.36      35.38       8.67        
C           111.0       35.01       8.87        
C           106.65      38.77       7.83        
N           107.03      40.1        7.47        
C           108.35      40.55       7.28        
O           105.47      38.4        7.83        
O           108.53      41.71       7.02        
O           113.87      37.04       8.02        
O           110.84      33.92       9.27        
C           113.37      34.37       8.5         
C           105.97      40.94       6.94        
H           113.76      34.53       7.46        
H           112.81      33.42       8.36        
H           114.1191    34.32189    9.29034     
H           106.19      42.05       7.14        
H           105.18      40.76       7.63        
H           105.6938    40.75138    5.90258     
H           112.85      39.14       7.3         
H           106.49      36.36       8.83        
C           107.54      36.6        8.54        
C           109.86      35.96       8.56        
C           108.54      35.64       8.79        
C           112.83      42.99       5.99        
C           112.7       43.08       7.35        
S           111.77      41.78       5.37        
H           111.9       41.7        9.01        
H           113.18      43.81       7.91        
C           112.0       41.97       7.93        
C           111.48      41.12       6.99        
C           114.76      45.88       4.14        
C           114.18      45.07       3.18        
S           114.47      45.24       5.73        
H           112.9       43.27       3.18        
H           114.3       45.12       2.11        
C           113.49      44.01       3.78        
C           113.47      43.99       5.11        
C           117.0       48.89       2.82        
C           116.85      49.01       4.18        
S           116.11      47.5        2.31        
H           115.8       48.0        5.79        
H           117.3       49.82       4.79        
C           115.99      48.04       4.75        
C           115.47      47.15       3.85        
C           121.88      52.37       0.32        
C           121.58      50.99       0.31        
C           121.02      53.26       0.92        
C           120.33      50.57       0.8         
C           119.45      51.48       1.42        
C           119.95      49.21       0.79        
C           119.84      52.82       1.58        
C           119.14      53.99       2.19        
N           118.04      53.52       2.92        
C           117.64      52.13       2.86        
C           120.85      48.14       0.27        
N           122.13      48.55       -0.11       
C           122.48      49.91       -0.22       
O           120.56      46.97       0.29        
O           123.67      50.17       -0.53       
O           119.51      55.16       2.15        
O           116.61      51.81       3.43        
C           117.8       54.29       4.14        
C           123.16      47.56       -0.54       
H           118.71      54.46       4.65        
H           117.32      53.72       4.91        
H           117.21065   55.18122    3.92438     
H           123.63      47.98       -1.46       
H           122.69      46.62       -0.8        
H           123.94046   47.44949    0.21284     
H           121.36      54.26       1.11        
H           118.63      47.86       1.36        
C           118.84      48.91       1.41        
C           118.32      51.11       2.07        
C           117.92      49.75       2.04        
C           125.09      53.92       -1.48       
C           125.52      53.23       -0.4        
S           123.4       54.0        -1.59       
H           124.56      52.0        1.15        
H           126.55      53.03       -0.17       
C           124.41      52.66       0.33        
C           123.17      52.99       -0.14       
C           127.74      54.77       -4.22       
C           126.56      55.34       -4.6        
S           127.6       54.09       -2.63       
H           124.45      55.42       -3.86       
H           126.49      55.98       -5.52       
C           125.48      55.06       -3.71       
C           125.88      54.28       -2.63       
H           68.49       8.73        23.6        
H           128.73      54.98       -4.67       
