512

C           67.85       36.66       4.92        
C           67.41       35.63       4.12        
S           69.26       37.39       4.18        
H           68.19       34.64       2.25        
H           66.6        34.93       4.37        
C           68.32       35.45       2.95        
C           69.12       36.57       2.7         
C           66.04       38.16       11.06       
C           66.53       37.0        10.45       
C           65.57       39.23       10.23       
C           66.77       36.99       9.06        
C           66.27       37.99       8.22        
C           67.4        35.86       8.52        
C           65.6        39.07       8.85        
C           65.25       40.27       8.05        
N           65.56       40.21       6.69        
C           66.03       39.13       6.03        
C           67.96       34.68       9.34        
N           67.67       34.74       10.69       
C           66.93       35.79       11.29       
O           68.63       33.77       8.87        
O           66.6        35.69       12.5        
O           64.91       41.29       8.63        
O           66.25       39.14       4.85        
C           64.83       41.06       5.78        
C           68.1        33.66       11.61       
H           64.43       40.51       4.97        
H           63.99       41.42       6.32        
H           65.43527    41.91572    5.48085     
H           68.33       34.09       12.55       
H           68.96       33.16       11.22       
H           67.30957    32.91154    11.66596    
H           65.24       40.14       10.73       
H           68.15       34.97       6.69        
C           67.73       35.85       7.17        
C           66.52       37.94       6.84        
C           67.29       36.91       6.29        
C           65.44       38.77       14.95       
C           66.63       39.28       14.65       
S           64.64       38.16       13.54       
H           67.93       39.44       12.83       
H           67.25       39.87       15.4        
C           66.93       39.17       13.24       
C           65.99       38.5        12.51       
C           62.91       38.52       17.93       
C           63.85       39.48       18.24       
S           63.31       37.81       16.4        
H           65.81       40.28       17.33       
H           63.79       40.09       19.15       
C           64.95       39.59       17.25       
C           64.82       38.72       16.19       
C           59.92       36.88       20.01       
C           59.98       38.21       20.22       
S           61.19       36.55       18.89       
H           61.21       40.04       19.75       
H           59.38       38.72       20.96       
C           61.05       38.93       19.61       
C           61.8        38.15       18.83       
C           55.42       32.77       22.43       
C           56.65       32.52       21.85       
C           54.87       34.04       22.36       
C           57.35       33.61       21.2        
C           56.76       34.89       21.1        
C           58.69       33.47       20.77       
C           55.45       35.02       21.65       
C           54.69       36.27       21.52       
N           55.24       37.31       20.73       
C           56.62       37.23       20.36       
C           59.42       32.18       20.78       
N           58.6        31.16       21.28       
C           57.33       31.24       21.75       
O           60.6        32.09       20.47       
O           56.78       30.2        22.14       
O           53.56       36.39       21.96       
O           57.04       38.17       19.73       
C           54.49       38.57       20.63       
C           59.28       29.86       21.52       
H           55.22       39.4        20.54       
H           53.86       38.75       21.54       
H           53.78338    38.6271     19.80204    
H           58.77       29.36       22.34       
H           60.28       30.06       21.82       
H           59.30826    29.25232    20.61555    
H           53.9        34.27       22.86       
H           60.38       34.42       20.15       
C           59.34       34.62       20.28       
C           57.42       36.03       20.59       
C           58.78       35.9        20.24       
C           52.37       30.65       23.96       
C           53.08       31.32       24.99       
S           53.33       30.85       22.48       
H           54.8        32.63       25.24       
H           52.71       31.4        25.98       
C           54.31       31.97       24.58       
C           54.53       31.9        23.25       
C           49.42       28.19       23.34       
C           48.97       29.0        24.4        
S           50.96       28.61       22.78       
H           49.88       30.76       25.41       
H           47.93       28.93       24.93       
C           49.98       30.02       24.7        
C           51.14       29.91       23.9        
C           48.05       25.61       20.79       
C           47.1        25.78       21.74       
S           49.39       26.58       21.19       
H           46.88       26.82       23.71       
H           46.11       25.33       21.6        
C           47.53       26.59       22.87       
C           48.7        27.15       22.71       
C           46.7        22.06       15.52       
C           47.68       21.96       16.5        
C           45.79       23.08       15.61       
C           47.72       22.88       17.55       
C           46.79       23.94       17.65       
C           48.75       22.78       18.58       
C           45.85       24.01       16.65       
C           44.8        25.12       16.59       
N           44.87       26.06       17.66       
C           45.82       26.01       18.68       
C           49.87       21.77       18.56       
N           49.77       20.82       17.56       
C           48.79       20.86       16.5        
O           50.71       21.73       19.43       
O           48.68       19.83       15.79       
O           43.82       25.02       15.82       
O           45.62       26.82       19.59       
C           44.15       27.28       17.4        
C           51.0        20.05       17.33       
H           44.1        27.49       16.33       
H           44.78       28.06       17.77       
H           43.15775    27.23654    17.84905    
H           50.68       19.03       16.95       
H           51.27       19.71       18.36       
H           51.75525    20.50751    16.69095    
H           45.1        23.29       14.85       
H           49.57       23.88       20.22       
C           48.8        23.8        19.54       
C           46.8        24.85       18.69       
C           47.83       24.79       19.61       
C           46.45       20.08       12.15       
C           45.25       20.13       12.7        
S           47.67       21.0        13.04       
H           44.37       20.81       14.62       
H           44.39       19.69       12.24       
C           45.26       20.82       13.95       
C           46.53       21.31       14.32       
C           47.76       18.41       8.85        
C           47.01       17.46       9.52        
S           47.85       19.91       9.74        
H           45.72       17.41       11.26       
H           46.81       16.41       9.23        
C           46.35       18.06       10.64       
C           46.78       19.28       10.99       
C           49.88       18.77       5.7         
C           49.77       17.48       5.94        
S           49.09       19.74       6.86        
H           48.61       16.21       7.25        
H           50.19       16.69       5.31        
C           48.83       17.24       6.97        
C           48.45       18.33       7.59        
C           53.64       19.39       0.38        
C           52.4        19.98       0.81        
C           54.36       18.79       1.41        
C           51.89       19.8        2.14        
C           52.66       19.11       3.13        
C           50.61       20.28       2.52        
C           53.94       18.63       2.71        
C           54.81       17.95       3.72        
N           54.32       17.81       5.04        
C           52.98       18.11       5.38        
C           49.59       20.9        1.59        
N           50.11       20.94       0.29        
C           51.42       20.51       -0.18       
O           48.54       21.37       1.92        
O           51.66       20.4        -1.33       
O           55.96       17.58       3.37        
O           52.64       17.98       6.49        
C           55.04       16.99       6.01        
C           49.41       21.87       -0.65       
H           55.18       16.04       5.55        
H           54.47       16.87       6.96        
H           55.99004    17.46502    6.25471     
H           50.16       22.33       -1.4        
H           49.04       22.68       -0.04       
H           48.62363    21.42992    -1.26323    
H           55.4        18.4        1.24        
H           49.11       20.3        3.99        
C           50.16       20.0        3.74        
C           52.12       18.8        4.4         
C           50.83       19.28       4.7         
C           55.92       20.77       -2.57       
C           56.19       19.45       -2.46       
S           54.75       21.26       -1.43       
H           55.34       17.75       -1.37       
H           56.96       18.93       -3.05       
C           55.33       18.81       -1.54       
C           54.42       19.62       -0.9        
C           58.11       22.87       -4.98       
C           57.1        23.67       -4.59       
S           58.02       21.3        -4.25       
H           55.26       23.55       -3.39       
H           57.13       24.64       -5.01       
C           56.13       23.05       -3.77       
C           56.55       21.74       -3.46       
C           60.85       24.41       -7.35       
C           61.1        23.08       -7.07       
S           59.31       24.73       -6.61       
H           60.43       21.43       -5.83       
H           62.03       22.68       -7.25       
C           60.28       22.43       -6.15       
C           59.18       23.23       -5.84       
C           65.96       26.87       -10.6       
C           64.69       26.55       -10.94      
C           66.2        26.83       -9.26       
C           63.69       26.23       -10.05      
C           63.98       26.11       -8.7        
C           62.37       25.91       -10.37      
C           65.32       26.51       -8.31       
C           65.77       26.47       -6.89       
N           64.79       25.99       -5.92       
C           63.58       25.5        -6.31       
C           61.85       25.98       -11.69      
N           62.82       26.32       -12.66      
C           64.17       26.62       -12.37      
O           60.72       25.61       -12.02      
O           64.8        27.03       -13.3       
O           66.9        26.72       -6.6        
O           62.87       25.2        -5.36       
C           65.27       25.86       -4.49       
C           62.52       26.37       -14.08      
H           66.23       25.52       -4.44       
H           64.64       25.18       -3.92       
H           65.18598    26.84028    -4.02087    
H           63.01       27.16       -14.62      
H           61.42       26.5        -14.18      
H           62.74361    25.40782    -14.54076   
H           67.21       27.0        -8.85       
H           60.48       25.14       -9.75       
C           61.49       25.43       -9.44       
C           63.09       25.63       -7.73       
C           61.83       25.25       -8.12       
C           69.25       26.32       -12.67      
C           69.43       27.46       -12.0       
S           67.67       25.69       -12.45      
H           68.28       28.63       -10.64      
H           70.23       28.1        -11.97      
C           68.25       27.78       -11.24      
C           67.17       26.93       -11.41      
C           71.81       25.0        -15.18      
C           71.42       26.21       -15.61      
S           70.96       24.51       -13.75      
H           69.93       27.77       -14.85      
H           71.79       26.72       -16.47      
C           70.43       26.78       -14.76      
C           70.11       26.0        -13.72      
C           74.98       22.98       -15.87      
C           74.66       23.64       -17.07      
S           73.83       23.27       -14.64      
H           72.88       24.71       -17.79      
H           75.21       23.7        -18.03      
C           73.42       24.26       -16.95      
C           72.86       24.18       -15.73      
C           80.46       19.48       -15.02      
C           80.27       20.84       -15.33      
C           79.36       18.6        -14.84      
C           78.92       21.26       -15.53      
C           77.85       20.43       -15.3       
C           78.66       22.61       -15.9       
C           78.08       19.09       -14.93      
C           77.0        18.12       -14.65      
N           75.67       18.54       -14.95      
C           75.37       19.85       -15.36      
C           79.73       23.57       -16.25      
N           81.03       23.03       -16.21      
C           81.34       21.72       -15.77      
O           79.41       24.68       -16.82      
O           82.53       21.48       -15.56      
O           77.3        16.91       -14.52      
O           74.19       20.08       -15.65      
C           74.88       17.4        -15.47      
C           82.09       23.56       -17.11      
H           75.59       16.72       -15.87      
H           74.24       17.77       -16.25      
H           74.2871     16.96056    -14.66784   
H           82.98       23.45       -16.51      
H           81.98       24.58       -17.4       
H           82.17608    22.97896    -18.02819   
H           79.57       17.63       -14.53      
H           77.24       24.1        -16.06      
C           77.34       23.05       -15.91      
C           76.49       20.88       -15.4       
C           76.23       22.2        -15.75      
C           83.51       16.94       -14.72      
C           83.78       18.02       -13.95      
S           81.98       17.21       -15.51      
H           82.76       19.85       -13.32      
H           84.7        18.17       -13.34      
C           82.71       18.96       -13.93      
C           81.7        18.75       -14.76      
C           85.53       13.58       -14.29      
C           84.75       13.6        -15.44      
S           85.33       15.21       -13.64      
H           83.56       14.95       -16.63      
H           84.74       12.78       -16.1       
C           84.06       14.76       -15.74      
C           84.1        15.67       -14.77      
C           88.32       11.4        -12.67      
C           87.7        10.65       -13.6       
S           87.53       12.94       -12.52      
H           86.12       10.86       -15.07      
H           88.07       9.67        -13.9       
C           86.67       11.32       -14.29      
C           86.45       12.56       -13.8       
C           93.03       8.59        -8.97       
C           92.92       8.96        -10.31      
C           92.05       9.09        -8.11       
C           91.76       9.63        -10.75      
C           90.66       9.96        -9.93       
C           91.63       9.82        -12.18      
C           90.89       9.68        -8.56       
C           89.84       10.04       -7.56       
N           88.6        10.44       -8.04       
C           88.39       10.8        -9.42       
C           92.6        9.45        -13.2       
N           93.69       8.74        -12.68      
C           93.94       8.56        -11.31      
O           92.41       9.66        -14.3       
O           95.04       8.15        -11.06      
O           90.03       9.83        -6.35       
O           87.25       11.27       -9.71       
C           87.43       10.07       -7.31       
C           94.55       8.01        -13.6       
H           87.66       9.15        -6.87       
H           86.66       9.88        -8.02       
H           87.17823    10.86726    -6.61065    
H           95.64       8.11        -13.56      
H           94.41       8.49        -14.61      
H           94.23824    6.96845     -13.67794   
H           92.06       8.78        -7.18       
H           90.38       10.62       -13.76      
C           90.46       10.43       -12.69      
C           89.46       10.61       -10.46      
C           89.42       10.86       -11.84      
C           95.72       6.78        -6.57       
C           95.57       6.02        -7.7        
S           94.68       8.16        -6.65       
H           94.47       6.14        -9.62       
H           96.05       5.04        -7.77       
C           94.66       6.6         -8.65       
C           94.0        7.78        -8.2        
C           97.69       7.06        -3.2        
C           98.03       5.87        -3.82       
S           96.58       7.93        -4.26       
H           97.63       4.78        -5.67       
H           98.65       5.11        -3.33       
C           97.43       5.7         -5.13       
C           96.71       6.75        -5.53       
C           98.48       9.2         -0.05       
C           99.16       8.0         0.03        
S           97.7        9.35        -1.6        
H           99.39       6.11        -1.13       
H           99.79       7.75        0.79        
C           98.87       7.06        -1.04       
C           98.1        7.65        -1.98       
C           99.66       14.26       4.09        
C           100.47      13.29       3.58        
C           98.24       14.16       3.82        
C           99.92       12.3        2.66        
C           98.53       12.23       2.36        
C           100.72      11.37       1.99        
C           97.71       13.23       3.01        
C           96.23       13.15       2.94        
N           95.79       12.21       1.98        
C           96.55       11.21       1.28        
C           102.21      11.32       2.34        
N           102.72      12.15       3.28        
C           101.96      13.13       3.91        
O           102.86      10.42       1.85        
O           102.49      13.79       4.84        
O           95.55       13.99       3.39        
O           95.98       10.31       0.79        
C           94.37       12.28       1.72        
C           104.18      12.36       3.19        
H           93.88       12.81       2.53        
H           93.93       11.32       1.77        
H           94.19763    12.6822     0.72169     
H           104.36      13.39       3.46        
H           104.35      12.23       2.09        
H           104.73309   11.658      3.814       
H           97.55       14.75       4.38        
H           100.92      9.68        0.66        
C           100.22      10.39       1.11        
C           98.04       11.24       1.48        
C           98.84       10.26       0.87        
C           100.66      17.32       6.37        
C           99.76       16.61       7.04        
S           100.98      16.66       4.77        
H           98.35       14.98       6.58        
H           99.31       16.93       7.96        
C           99.28       15.53       6.26        
C           99.96       15.3        5.1         
C           102.54      20.65       6.21        
C           101.83      20.64       7.36        
S           102.39      19.11       5.36        
H           100.35      19.25       8.43        
H           101.93      21.37       8.14        
C           101.0       19.46       7.57        
C           101.29      18.54       6.58        
C           105.4       23.21       5.29        
C           104.75      22.9        4.21        
S           104.66      22.44       6.66        
H           103.17      21.45       3.49        
H           105.12      23.25       3.24        
C           103.67      21.96       4.33        
C           103.48      21.61       5.64        
C           110.28      27.62       5.41        
C           110.32      26.22       5.45        
C           109.05      28.26       5.57        
C           109.09      25.55       5.43        
C           107.83      26.18       5.62        
C           109.04      24.15       5.32        
C           107.89      27.57       5.71        
C           106.65      28.42       5.9         
N           105.46      27.68       6.14        
C           105.37      26.23       5.84        
C           110.26      23.25       5.38        
N           111.45      23.98       5.32        
C           111.56      25.41       5.29        
O           110.18      22.05       5.48        
O           112.69      25.87       5.29        
O           106.63      29.62       5.83        
O           104.26      25.71       6.09        
C           104.21      28.47       6.48        
C           112.62      23.13       5.38        
H           103.23      27.91       6.42        
H           104.2       29.27       5.76        
H           104.28116   28.85425    7.49754     
H           113.47      23.63       4.75        
H           112.51      22.23       4.74        
H           112.94083   22.88938    6.39354     
H           108.91      29.3        5.51        
H           107.9       22.44       5.2         
C           107.82      23.51       5.28        
C           106.59      25.48       5.69        
C           106.55      24.11       5.42        
C           112.64      30.83       4.93        
C           113.08      29.77       4.11        
S           111.25      30.28       5.79        
H           112.52      27.65       3.62        
H           113.98      29.9        3.46        
C           112.33      28.54       4.24        
C           111.31      28.66       5.12        
C           112.76      34.53       6.03        
C           113.48      34.43       4.89        
S           112.43      32.92       6.57        
H           114.24      32.89       3.47        
H           113.94      35.24       4.42        
C           113.69      33.15       4.33        
C           113.0       32.22       5.09        
C           112.22      36.78       9.16        
C           112.56      37.55       8.05        
S           111.92      35.19       8.47        
H           113.31      37.3        5.89        
H           112.79      38.63       8.11        
C           112.97      36.86       6.85        
C           112.62      35.62       6.94        
C           113.05      38.37       15.51       
C           113.64      38.77       14.35       
C           111.96      37.51       15.32       
C           113.17      38.29       13.09       
C           112.03      37.46       12.95       
C           113.86      38.55       11.86       
C           111.42      37.11       14.14       
C           110.27      36.17       14.22       
N           109.83      35.74       12.98       
C           110.41      36.14       11.75       
C           115.03      39.42       11.85       
N           115.58      39.8        13.07       
C           114.91      39.5        14.27       
O           115.61      39.72       10.82       
O           115.5       39.92       15.25       
O           109.7       35.83       15.28       
O           109.86      35.8        10.68       
C           108.43      35.51       12.9        
C           117.04      39.78       13.04       
H           107.98      35.91       12.0        
H           107.89      36.04       13.71       
H           108.17254   34.45231    12.95567    
H           117.4       40.59       13.65       
H           117.39      39.92       12.08       
H           117.45154   38.85229    13.43759    
H           111.36      37.18       16.21       
H           114.13      38.23       9.8         
C           113.54      38.0        10.65       
C           111.59      37.04       11.67       
C           112.32      37.29       10.51       
C           113.26      40.33       18.82       
C           113.16      39.01       19.1        
S           113.31      40.6        17.1        
H           112.99      37.11       18.11       
H           113.15      38.66       20.07       
C           113.12      38.15       18.02       
C           113.2       38.85       16.84       
C           112.85      43.02       21.76       
C           112.89      43.64       20.58       
S           112.92      41.37       21.4        
H           113.04      43.18       18.42       
H           112.76      44.71       20.54       
C           113.05      42.82       19.42       
C           113.15      41.51       19.7        
H           69.03       37.14       1.82        
H           113.18      43.44       22.73       
