512

C           62.52       9.22        26.58       
C           61.82       9.43        25.38       
S           61.89       10.41       27.74       
H           60.01       10.61       24.64       
H           61.9        8.73        24.57       
C           60.78       10.44       25.42       
C           60.79       11.17       26.6        
C           66.8        4.17        27.4        
C           65.62       4.49        28.02       
C           67.13       4.99        26.29       
C           64.86       5.69        27.6        
C           65.24       6.52        26.47       
C           63.63       6.03        28.24       
C           66.41       6.06        25.76       
C           67.14       6.86        24.75       
N           66.53       8.03        24.41       
C           65.33       8.5         25.02       
C           63.01       5.13        29.29       
N           63.89       4.1         29.78       
C           65.08       3.69        29.17       
O           61.91       5.45        29.77       
O           65.69       2.76        29.65       
O           68.12       6.47        24.22       
O           64.89       9.54        24.61       
C           67.24       8.87        23.42       
C           63.81       3.88        31.27       
H           67.63       8.15        22.7        
H           66.45       9.46        22.87       
H           68.03477    9.44362     23.89686    
H           64.02       2.84        31.39       
H           62.77       3.98        31.53       
H           64.4104     4.52328     31.91328    
H           68.12       4.81        25.91       
H           62.01       7.47        28.26       
C           62.96       7.18        27.85       
C           64.61       7.71        26.11       
C           63.4        8.02        26.78       
C           69.77       1.94        28.75       
C           69.56       1.66        27.46       
S           68.79       3.29        29.28       
H           68.47       2.63        25.77       
H           70.19       1.02        26.88       
C           68.64       2.59        26.86       
C           67.86       3.26        27.79       
C           71.74       -0.88       30.71       
C           71.57       0.21        31.53       
S           71.09       -0.5        29.15       
H           70.84       2.33        31.47       
H           71.9        0.21        32.52       
C           71.06       1.41        30.9        
C           70.64       1.21        29.61       
C           72.82       -4.38       32.19       
C           72.38       -4.58       30.99       
S           72.68       -2.67       32.53       
H           71.63       -3.48       29.27       
H           72.33       -5.59       30.53       
C           71.92       -3.38       30.31       
C           72.12       -2.27       30.98       
C           74.45       -9.44       36.12       
C           74.93       -9.08       34.8        
C           73.58       -8.65       36.82       
C           74.41       -7.9        34.28       
C           73.57       -7.03       34.99       
C           74.9        -7.31       33.05       
C           73.12       -7.46       36.25       
C           72.0        -6.82       37.03       
N           71.53       -5.62       36.45       
C           71.91       -5.17       35.18       
C           75.93       -7.96       32.26       
N           76.38       -9.17       32.75       
C           76.05       -9.7        34.02       
O           76.55       -7.51       31.27       
O           76.63       -10.64      34.44       
O           71.57       -7.36       38.04       
O           71.11       -4.37       34.7        
C           71.01       -4.5        37.22       
C           77.28       -9.93       31.91       
H           70.0        -4.22       36.83       
H           71.57       -3.63       36.99       
H           70.92633    -4.66735    38.29382    
H           77.81       -10.71      32.42       
H           77.98       -9.23       31.49       
H           76.76156    -10.42742   31.09031    
H           73.2        -8.89       37.83       
H           74.68       -6.03       31.45       
C           74.36       -6.22       32.47       
C           72.98       -5.87       34.38       
C           73.31       -5.51       33.06       
C           74.62       -13.1       37.52       
C           74.7        -12.3       38.56       
S           74.75       -12.29      35.99       
H           74.7        -10.11      38.79       
H           74.68       -12.68      39.56       
C           74.69       -10.94      38.13       
C           74.58       -10.74      36.8        
C           73.72       -16.98      37.39       
C           74.71       -16.82      38.31       
S           73.28       -15.44      36.8        
H           75.78       -14.99      39.23       
H           75.18       -17.62      38.96       
C           75.15       -15.41      38.44       
C           74.55       -14.55      37.58       
C           72.09       -20.43      36.72       
C           72.14       -19.72      35.56       
S           72.73       -19.39      38.0        
H           72.79       -17.72      34.79       
H           71.7        -20.02      34.56       
C           72.75       -18.44      35.62       
C           73.13       -18.17      36.88       
C           68.71       -25.75      38.68       
C           68.38       -24.71      37.78       
C           70.0        -25.78      39.28       
C           69.38       -23.78      37.51       
C           70.67       -23.84      38.06       
C           69.2        -22.68      36.68       
C           70.97       -24.9       38.94       
C           72.15       -24.98      39.8        
N           73.15       -23.98      39.57       
C           73.0        -22.97      38.57       
C           67.94       -22.48      35.98       
N           66.92       -23.39      36.28       
C           67.08       -24.54      37.11       
O           67.73       -21.42      35.31       
O           66.02       -25.15      37.34       
O           72.31       -25.81      40.66       
O           73.91       -22.12      38.47       
C           74.25       -23.85      40.54       
C           65.54       -22.92      36.29       
H           73.96       -24.04      41.58       
H           74.67       -22.84      40.63       
H           75.07326    -24.51713   40.2845     
H           64.82       -23.65      36.04       
H           65.55       -22.12      35.52       
H           65.29586    -22.42432   37.22957    
H           70.26       -26.64      39.92       
H           69.94       -20.92      35.79       
C           70.21       -21.8       36.35       
C           71.67       -22.8       37.82       
C           71.5        -21.76      36.88       
C           66.64       -29.05      39.51       
C           66.96       -28.51      40.72       
S           67.26       -28.05      38.2        
H           67.98       -26.78      41.34       
H           66.52       -28.76      41.7        
C           67.78       -27.37      40.47       
C           67.98       -26.92      39.2        
C           63.97       -31.45      38.15       
C           64.26       -31.98      39.4        
S           64.73       -29.91      37.82       
H           65.76       -31.46      40.91       
H           63.83       -32.81      39.87       
C           65.31       -31.24      39.95       
C           65.67       -30.09      39.25       
C           63.09       -32.33      34.75       
C           62.58       -33.37      35.44       
S           63.78       -31.08      35.79       
H           62.39       -34.02      37.59       
H           62.37       -34.39      34.94       
C           62.58       -33.23      36.85       
C           63.13       -32.02      37.13       
C           64.46       -31.37      28.39       
C           64.77       -32.41      29.31       
C           63.65       -30.39      28.86       
C           64.27       -32.44      30.62       
C           63.41       -31.39      31.1        
C           64.61       -33.41      31.58       
C           63.17       -30.36      30.14       
C           62.4        -29.17      30.46       
N           61.91       -29.17      31.79       
C           62.17       -30.15      32.72       
C           65.56       -34.51      31.23       
N           66.1        -34.48      29.94       
C           65.78       -33.49      29.02       
O           65.92       -35.31      32.04       
O           66.35       -33.52      27.91       
O           62.15       -28.3       29.68       
O           61.59       -30.03      33.79       
C           61.82       -27.81      32.33       
C           67.12       -35.5       29.58       
H           62.52       -27.11      31.95       
H           62.18       -27.87      33.38       
H           60.78742    -27.46116   32.31605    
H           66.94       -36.08      28.67       
H           66.95       -36.27      30.31       
H           68.14544    -35.13278   29.53843    
H           63.29       -29.5       28.2        
H           64.39       -34.22      33.56       
C           64.09       -33.43      32.86       
C           62.96       -31.4       32.43       
C           63.28       -32.4       33.29       
C           65.53       -30.28      24.75       
C           64.8        -31.42      24.64       
S           65.76       -29.86      26.4        
H           63.72       -32.73      26.2        
H           64.53       -31.85      23.66       
C           64.4        -31.95      25.91       
C           64.82       -31.17      26.95       
C           67.84       -28.52      22.29       
C           66.64       -28.59      21.59       
S           67.82       -29.21      23.85       
H           64.74       -29.43      22.03       
H           66.46       -28.26      20.59       
C           65.65       -29.18      22.41       
C           66.1        -29.57      23.66       
C           71.58       -27.86      21.49       
C           70.92       -26.63      21.36       
S           70.46       -29.13      21.91       
H           68.88       -25.91      21.33       
H           71.46       -25.69      21.2        
C           69.55       -26.76      21.43       
C           69.14       -28.01      21.85       
C           78.02       -29.1       20.64       
C           77.3        -28.34      21.63       
C           77.27       -29.64      19.57       
C           75.9        -28.17      21.52       
C           75.18       -28.74      20.41       
C           75.15       -27.48      22.48       
C           75.86       -29.49      19.44       
C           75.12       -30.14      18.34       
N           73.72       -29.87      18.3        
C           73.04       -28.98      19.1        
C           75.8        -26.83      23.66       
N           77.17       -26.97      23.71       
C           77.94       -27.68      22.77       
O           75.08       -26.36      24.54       
O           79.18       -27.76      22.94       
O           75.68       -30.98      17.66       
O           71.85       -28.81      18.83       
C           72.94       -30.59      17.28       
C           77.85       -26.73      24.96       
H           73.44       -30.34      16.4        
H           71.95       -30.21      17.12       
H           72.97434    -31.67521   17.37616    
H           78.49       -27.52      25.14       
H           76.99       -26.66      25.71       
H           78.42278    -25.80265   24.96682    
H           77.77       -30.13      18.73       
H           73.12       -26.97      23.21       
C           73.75       -27.44      22.45       
C           73.76       -28.48      20.28       
C           73.04       -27.94      21.31       
C           81.91       -29.9       20.83       
C           81.57       -29.31      19.62       
S           80.53       -30.18      21.8        
H           79.75       -28.51      18.64       
H           82.22       -28.98      18.81       
C           80.16       -28.99      19.52       
C           79.47       -29.28      20.64       
C           85.65       -29.89      22.1        
C           84.91       -30.62      23.0        
S           84.55       -29.3       20.8        
H           82.78       -31.41      23.11       
H           85.38       -31.13      23.79       
C           83.53       -30.87      22.56       
C           83.2        -30.2       21.41       
C           89.25       -29.52      20.98       
C           89.33       -29.79      22.32       
S           87.54       -29.24      20.49       
H           87.81       -30.15      23.93       
H           90.27       -30.04      22.77       
C           88.04       -29.92      22.92       
C           87.03       -29.67      22.08       
C           94.67       -27.91      17.63       
C           93.47       -28.53      17.27       
C           94.84       -27.4       18.95       
C           92.46       -28.68      18.25       
C           92.59       -28.25      19.58       
C           91.26       -29.43      17.95       
C           93.8        -27.55      19.86       
C           94.11       -26.97      21.13       
N           93.08       -27.07      22.06       
C           91.87       -27.72      21.83       
C           91.05       -30.05      16.57       
N           92.0        -29.78      15.6        
C           93.2        -29.06      15.89       
O           90.14       -30.83      16.37       
O           93.95       -28.79      15.02       
O           95.27       -26.64      21.36       
O           90.99       -27.66      22.69       
C           93.37       -26.59      23.42       
C           91.85       -30.36      14.29       
H           93.99       -27.23      23.91       
H           92.53       -26.57      24.13       
H           93.77772    -25.58428   23.52193    
H           92.33       -29.7       13.53       
H           90.85       -30.49      14.11       
H           92.32746    -31.33663   14.21042    
H           95.79       -27.03      19.15       
H           89.44       -30.27      18.72       
C           90.27       -29.6       18.95       
C           91.56       -28.33      20.55       
C           90.39       -29.0       20.22       
C           97.99       -27.0       15.82       
C           97.8        -28.3       15.59       
S           96.68       -26.2       16.63       
H           96.23       -29.77      16.06       
H           98.37       -29.03      15.02       
C           96.62       -28.77      16.22       
C           95.95       -27.77      16.82       
C           100.04      -25.15      13.15       
C           99.68       -24.19      14.07       
S           99.47       -26.69      13.63       
H           98.74       -24.21      16.07       
H           99.73       -23.16      13.9        
C           99.21       -24.78      15.28       
C           98.9        -26.13      15.15       
C           101.88      -25.4       9.7         
C           101.09      -24.3       9.75        
S           101.67      -26.18      11.22       
H           100.03      -23.1       11.29       
H           100.99      -23.61      9.02        
C           100.47      -24.0       11.01       
C           100.64      -25.01      11.88       
C           105.37      -27.46      4.42        
C           104.23      -26.64      4.55        
C           106.1       -27.84      5.58        
C           103.69      -26.44      5.84        
C           104.26      -26.93      7.04        
C           102.5       -25.75      6.0         
C           105.5       -27.62      6.85        
C           106.41      -27.92      7.98        
N           105.94      -27.65      9.28        
C           104.8       -26.86      9.48        
C           101.76      -25.17      4.87        
N           102.35      -25.3       3.6         
C           103.49      -26.12      3.38        
O           100.75      -24.44      5.13        
O           103.74      -26.23      2.2         
O           107.48      -28.42      7.76        
O           104.57      -26.52      10.6        
C           106.55      -28.35      10.44       
C           102.11      -24.22      2.64        
H           106.81      -29.38      10.18       
H           105.78      -28.45      11.29       
H           107.3643    -27.77033   10.87475    
H           102.91      -24.04      1.91        
H           102.02      -23.33      3.2         
H           101.19873   -24.42926   2.07974     
H           107.02      -28.35      5.44        
H           101.09      -25.07      7.27        
C           101.97      -25.57      7.26        
C           103.86      -26.5       8.34        
C           102.67      -25.82      8.51        
C           107.97      -27.84      1.47        
C           107.78      -29.07      2.05        
S           106.71      -26.77      2.06        
H           106.64      -29.98      3.73        
H           108.45      -29.88      1.84        
C           106.87      -29.02      3.17        
C           106.15      -27.82      3.24        
C           110.19      -26.14      -1.13       
C           110.32      -27.53      -1.28       
S           109.39      -25.78      0.36        
H           109.27      -29.33      -0.47       
H           110.96      -27.98      -2.02       
C           109.39      -28.24      -0.48       
C           108.89      -27.49      0.45        
C           110.77      -22.91      -3.3        
C           111.77      -23.72      -3.43       
S           109.54      -23.81      -2.4        
H           112.78      -25.42      -2.35       
H           112.66      -23.49      -3.98       
C           111.88      -24.83      -2.55       
C           110.7       -25.04      -1.92       
C           109.36      -17.5       -6.85       
C           109.81      -18.81      -7.23       
C           109.06      -17.3       -5.47       
C           110.15      -19.76      -6.13       
C           109.72      -19.55      -4.84       
C           110.61      -21.07      -6.46       
C           109.23      -18.27      -4.5        
C           109.06      -17.74      -3.14       
N           109.38      -18.67      -2.14       
C           109.86      -20.02      -2.41       
C           110.96      -21.49      -7.85       
N           110.72      -20.54      -8.81       
C           110.2       -19.22      -8.63       
O           111.38      -22.63      -8.04       
O           109.97      -18.51      -9.57       
O           108.74      -16.57      -2.87       
O           110.03      -20.78      -1.49       
C           109.17      -18.3       -0.76       
C           110.92      -20.91      -10.2       
H           109.28      -19.07      -0.07       
H           108.2       -17.85      -0.65       
H           109.97055   -17.60479   -0.5072     
H           110.22      -20.29      -10.78      
H           110.66      -21.94      -10.36      
H           111.93053   -20.65916   -10.52251   
H           108.7       -16.26      -5.17       
H           111.19      -22.98      -5.78       
C           110.73      -22.02      -5.48       
C           110.03      -20.43      -3.84       
C           110.5       -21.71      -4.16       
C           108.85      -13.9       -8.43       
C           108.46      -14.84      -9.36       
S           109.4       -14.72      -7.0        
H           108.15      -17.02      -9.46       
H           107.97      -14.63      -10.26      
C           108.54      -16.16      -8.91       
C           109.1       -16.27      -7.65       
C           108.76      -10.06      -8.01       
C           108.44      -10.35      -9.33       
S           109.26      -11.51      -7.2        
H           108.13      -12.18      -10.6       
H           108.13      -9.56       -10.06      
C           108.39      -11.74      -9.59       
C           108.74      -12.51      -8.54       
C           108.66      -6.45       -6.51       
C           108.92      -7.37       -5.51       
S           108.61      -7.31       -8.03       
H           109.23      -9.49       -5.12       
H           108.96      -7.05       -4.52       
C           109.03      -8.67       -5.88       
C           108.9       -8.81       -7.23       
C           106.17      -0.31       -6.27       
C           106.16      -1.37       -5.38       
C           107.06      -0.39       -7.35       
C           106.96      -2.51       -5.61       
C           107.85      -2.62       -6.64       
C           106.84      -3.61       -4.78       
C           107.87      -1.54       -7.47       
C           108.88      -1.48       -8.59       
N           109.69      -2.59       -8.82       
C           109.44      -3.77       -8.12       
C           106.0       -3.61       -3.53       
N           105.2       -2.47       -3.33       
C           105.1       -1.46       -4.28       
O           105.93      -4.64       -2.83       
O           104.44      -0.5        -3.93       
O           108.88      -0.62       -9.34       
O           110.31      -4.56       -8.3        
C           110.47      -2.61       -10.13      
C           104.01      -2.6        -2.42       
H           109.74      -2.27       -10.84      
H           110.76      -3.65       -10.22      
H           111.28717   -1.89145    -10.1934    
H           103.71      -1.63       -1.97       
H           104.3       -3.15       -1.56       
H           103.07701   -2.89499    -2.90022    
H           107.11      0.42        -8.11       
H           107.34      -5.63       -4.38       
C           107.49      -4.82       -5.06       
C           108.57      -3.83       -6.95       
C           108.35      -5.0        -6.19       
C           104.42      3.29        -6.89       
C           103.53      2.31        -6.77       
S           106.0       2.51        -6.73       
H           103.2       0.18        -6.42       
H           102.44      2.54        -6.83       
C           103.95      1.01        -6.54       
C           105.3       0.91        -6.41       
C           103.66      7.22        -7.16       
C           104.78      7.01        -7.85       
S           102.93      5.74        -6.57       
H           106.2       5.29        -8.11       
H           105.45      7.78        -8.26       
C           105.15      5.57        -7.85       
C           104.24      4.74        -7.25       
C           101.54      10.4        -6.26       
C           102.87      10.69       -5.94       
S           101.4       8.76        -6.92       
H           104.82      9.63        -5.93       
H           103.17      11.52       -5.3        
C           103.81      9.63        -6.28       
C           103.14      8.51        -6.84       
C           96.34       14.06       -4.31       
C           97.46       13.6        -3.65       
C           96.16       13.68       -5.6        
C           98.43       12.87       -4.35       
C           98.3        12.57       -5.73       
C           99.55       12.29       -3.75       
C           97.13       13.0        -6.32       
C           96.82       12.78       -7.75       
N           97.79       12.11       -8.52       
C           99.02       11.66       -7.96       
C           99.88       12.54       -2.28       
N           98.91       13.28       -1.53       
C           97.77       13.83       -2.15       
O           100.77      11.91       -1.75       
O           97.03       14.52       -1.43       
O           95.86       13.36       -8.26       
O           99.62       10.9        -8.6        
C           98.04       12.47       -9.93       
C           99.0        13.4        -0.05       
H           99.12       12.54       -10.16      
H           97.6        13.49       -10.09      
H           97.59814    11.72903    -10.5962    
H           98.82       14.4        0.33        
H           100.04      13.15       0.19        
H           98.39703    12.66934    0.48913     
H           95.18       13.91       -6.09       
H           101.23      11.02       -3.78       
C           100.44      11.49       -4.44       
C           99.31       11.87       -6.49       
C           100.39      11.28       -5.82       
C           93.5        16.4        -2.78       
C           93.07       15.1        -2.7        
S           95.09       16.43       -3.47       
H           93.78       13.09       -3.47       
H           92.09       14.81       -2.36       
C           94.04       14.13       -3.31       
C           95.21       14.72       -3.71       
C           91.58       19.37       -1.04       
C           92.56       19.88       -1.83       
S           91.59       17.58       -1.2        
H           94.14       19.11       -3.32       
H           92.67       20.99       -1.88       
C           93.34       18.9        -2.58       
C           92.9        17.61       -2.3        
H           60.58       12.25       26.59       
H           90.66       19.85       -0.6        
