512

C           65.1        42.61       13.28       
C           64.39       43.05       12.19       
S           66.67       41.99       12.84       
H           64.91       43.27       10.03       
H           63.38       43.38       12.25       
C           65.21       42.94       11.01       
C           66.5        42.58       11.22       
C           62.27       41.82       19.39       
C           61.81       41.55       18.08       
C           63.48       42.62       19.46       
C           62.61       41.88       16.98       
C           63.86       42.58       17.07       
C           62.24       41.61       15.66       
C           64.22       43.03       18.4        
C           65.49       43.74       18.67       
N           66.31       43.94       17.51       
C           66.03       43.47       16.22       
C           61.03       40.75       15.44       
N           60.24       40.39       16.52       
C           60.54       40.76       17.83       
O           60.96       40.21       14.34       
O           59.91       40.29       18.74       
O           65.73       44.24       19.78       
O           66.81       43.79       15.4        
C           67.44       44.88       17.74       
C           59.22       39.36       16.28       
H           67.76       45.43       16.78       
H           67.06       45.66       18.35       
H           68.29714    44.38605    18.19763    
H           59.26       38.63       17.0        
H           59.38       38.92       15.34       
H           58.19238    39.72106    16.32166    
H           63.86       42.81       20.43       
H           62.62       41.63       13.67       
C           63.09       41.89       14.57       
C           64.74       42.8        15.94       
C           64.38       42.45       14.6        
C           60.3        41.81       22.89       
C           61.6        41.31       23.08       
S           60.03       42.15       21.21       
H           63.5        41.16       21.85       
H           62.06       41.04       24.01       
C           62.38       41.29       21.88       
C           61.66       41.6        20.74       
C           56.98       42.1        24.98       
C           58.05       42.2        25.81       
S           57.58       42.03       23.36       
H           60.33       42.19       25.69       
H           57.87       42.27       26.9        
C           59.36       42.08       25.17       
C           59.27       41.99       23.83       
C           53.13       42.92       25.2        
C           53.65       43.06       26.45       
S           54.37       42.46       24.04       
H           55.73       42.71       27.36       
H           52.99       43.23       27.23       
C           55.06       42.69       26.5        
C           55.57       42.3        25.27       
C           46.73       44.63       24.53       
C           47.42       43.44       24.35       
C           47.54       45.72       24.97       
C           48.88       43.45       24.49       
C           49.67       44.57       24.93       
C           49.58       42.19       24.34       
C           48.89       45.74       25.14       
C           49.52       47.01       25.63       
N           50.96       47.04       25.9        
C           51.74       45.84       25.67       
C           48.88       40.93       24.08       
N           47.49       40.98       23.84       
C           46.73       42.15       24.12       
O           49.52       39.93       23.86       
O           45.54       41.98       24.15       
O           48.93       48.03       25.95       
O           52.87       45.85       25.95       
C           51.49       48.12       26.75       
C           46.8        39.66       23.58       
H           52.07       47.61       27.53       
H           50.74       48.72       27.22       
H           52.2083     48.71029    26.18105    
H           45.83       39.62       24.03       
H           47.48       38.97       24.09       
H           46.83559    39.3824     22.52654    
H           47.08       46.7        25.11       
H           51.51       41.23       24.31       
C           50.96       42.18       24.55       
C           51.11       44.52       25.17       
C           51.74       43.3        24.99       
C           42.87       44.85       23.95       
C           43.16       45.2        25.29       
S           44.41       44.73       23.13       
H           44.91       45.44       26.51       
H           42.33       45.46       25.95       
C           44.56       45.3        25.53       
C           45.34       44.88       24.53       
C           40.07       43.47       21.49       
C           39.45       44.23       22.4        
S           41.82       43.47       21.84       
H           39.96       45.51       24.13       
H           38.35       44.41       22.36       
C           40.32       44.83       23.36       
C           41.65       44.55       23.22       
C           39.2        41.27       18.25       
C           38.19       41.15       19.15       
S           40.35       42.34       18.95       
H           37.57       42.03       21.06       
H           37.32       40.5        19.05       
C           38.34       42.0        20.27       
C           39.52       42.61       20.43       
C           39.66       38.06       12.55       
C           39.41       37.59       13.85       
C           39.68       39.49       12.33       
C           39.33       38.59       14.88       
C           39.48       39.98       14.65       
C           39.14       38.12       16.22       
C           39.61       40.44       13.32       
C           39.76       41.87       12.95       
N           39.84       42.83       13.97       
C           39.69       42.48       15.33       
C           38.92       36.69       16.58       
N           38.84       35.75       15.49       
C           39.16       36.11       14.13       
O           38.59       36.33       17.69       
O           38.98       35.27       13.28       
O           39.73       42.17       11.76       
O           39.64       43.43       16.14       
C           39.84       44.28       13.65       
C           38.5        34.33       15.75       
H           39.64       44.96       14.46       
H           39.16       44.44       12.89       
H           40.78444    44.62343    13.22787    
H           38.04       33.9        14.93       
H           37.75       34.35       16.57       
H           39.42017    33.77929    15.94519    
H           39.93       39.86       11.38       
H           38.99       38.79       18.22       
C           39.17       39.1        17.21       
C           39.51       40.99       15.63       
C           39.26       40.52       16.95       
C           40.38       36.45       9.05        
C           39.07       36.17       9.36        
S           41.15       37.46       10.25       
H           37.78       36.6        11.19       
H           38.41       35.5        8.83        
C           38.7        36.69       10.63       
C           39.77       37.3        11.28       
C           42.95       35.62       6.23        
C           41.73       35.62       5.7         
S           42.8        36.03       7.96        
H           39.63       36.12       6.13        
H           41.57       35.42       4.61        
C           40.63       36.0        6.54        
C           41.07       36.17       7.83        
C           46.73       35.22       5.32        
C           46.02       34.77       4.26        
S           45.6        35.66       6.59        
H           43.98       34.56       3.58        
H           46.41       34.4        3.24        
C           44.59       34.89       4.43        
C           44.24       35.28       5.67        
C           53.21       36.24       4.54        
C           52.19       36.91       5.27        
C           52.89       35.02       4.02        
C           50.94       36.35       5.35        
C           50.65       35.12       4.74        
C           49.88       36.98       6.02        
C           51.62       34.47       4.03        
C           51.43       33.14       3.44        
N           50.18       32.52       3.56        
C           49.1        33.28       4.14        
C           50.02       38.21       6.78        
N           51.36       38.76       6.76        
C           52.46       38.22       6.04        
O           49.11       38.75       7.41        
O           53.56       38.82       6.2         
O           52.38       32.65       2.9         
O           48.04       32.69       4.07        
C           49.83       31.32       2.69        
C           51.45       40.17       7.25        
H           50.32       31.51       1.76        
H           48.78       31.19       2.48        
H           50.24234    30.3991     3.10234     
H           52.46       40.45       7.54        
H           50.83       40.2        8.17        
H           51.03725    40.8724     6.52587     
H           53.54       34.58       3.36        
H           47.76       37.12       6.37        
C           48.57       36.49       6.04        
C           49.28       34.6        4.82        
C           48.19       35.26       5.42        
C           56.98       36.69       3.56        
C           56.93       36.99       4.92        
S           55.4        36.47       2.92        
H           55.23       36.92       6.45        
H           57.81       37.25       5.47        
C           55.57       36.75       5.46        
C           54.68       36.47       4.45        
C           59.52       36.16       0.66        
C           59.98       37.07       1.48        
S           57.96       35.66       1.23        
H           59.56       37.99       3.45        
H           60.93       37.53       1.39        
C           59.29       37.27       2.71        
C           58.08       36.65       2.68        
C           60.88       33.82       -2.05       
C           60.5        35.01       -2.63       
S           60.45       33.87       -0.35       
H           59.8        37.0        -2.15       
H           60.7        35.36       -3.63       
C           60.05       36.0        -1.79       
C           59.96       35.53       -0.54       
C           63.33       29.1        -6.15       
C           62.13       29.85       -6.09       
C           64.23       29.27       -5.09       
C           61.93       30.85       -5.07       
C           62.83       31.03       -3.96       
C           60.7        31.57       -5.01       
C           63.99       30.26       -4.06       
C           65.03       30.32       -2.97       
N           64.83       31.25       -1.91       
C           63.61       32.09       -1.8        
C           59.58       31.41       -5.97       
N           59.88       30.5        -7.04       
C           61.12       29.85       -7.16       
O           58.52       31.96       -5.84       
O           61.25       29.2        -8.16       
O           65.91       29.47       -3.07       
O           63.52       32.79       -0.84       
C           65.69       31.15       -0.71       
C           58.95       30.25       -8.15       
H           65.49       30.19       -0.19       
H           65.59       32.01       -0.01       
H           66.74767    31.27067    -0.94425    
H           59.55       30.38       -9.12       
H           58.2        31.09       -8.09       
H           58.41414    29.30688    -8.04283    
H           65.04       28.57       -5.03       
H           59.55       33.01       -3.99       
C           60.47       32.41       -3.93       
C           62.56       31.95       -2.86       
C           61.39       32.68       -2.89       
C           64.84       27.0        -9.13       
C           63.57       26.49       -8.76       
S           65.18       28.31       -8.08       
H           61.96       26.93       -7.38       
H           63.07       25.71       -9.31       
C           63.02       27.13       -7.67       
C           63.77       28.11       -7.15       
C           67.14       26.36       -12.26      
C           65.81       26.48       -12.66      
S           67.22       26.57       -10.54      
H           63.8        26.67       -11.66      
H           65.5        26.25       -13.7       
C           64.85       26.63       -11.58      
C           65.45       26.7        -10.37      
C           70.76       25.89       -13.74      
C           69.88       25.9        -14.81      
S           69.91       26.11       -12.25      
H           67.74       26.24       -15.12      
H           70.18       25.89       -15.83      
C           68.5        26.07       -14.38      
C           68.34       26.12       -13.02      
C           76.44       22.59       -13.76      
C           75.13       22.34       -14.15      
C           76.7        23.88       -13.31      
C           74.09       23.29       -13.97      
C           74.36       24.6        -13.49      
C           72.8        22.99       -14.36      
C           75.71       24.87       -13.24      
C           76.12       26.21       -12.75      
N           75.1        27.17       -12.64      
C           73.73       26.88       -12.94      
C           72.36       21.7        -14.94      
N           73.41       20.75       -15.14      
C           74.72       20.94       -14.71      
O           71.16       21.49       -15.15      
O           75.51       20.04       -15.05      
O           77.28       26.47       -12.51      
O           72.97       27.82       -13.09      
C           75.48       28.56       -12.11      
C           73.11       19.35       -15.57      
H           76.11       28.38       -11.26      
H           74.6        29.12       -11.68      
H           75.96898    29.19279    -12.85066   
H           73.73       19.06       -16.38      
H           72.11       19.52       -15.95      
H           72.88023    18.63844    -14.77691   
H           77.69       24.24       -13.05      
H           70.77       23.76       -14.59      
C           71.85       24.0        -14.31      
C           73.34       25.56       -13.4       
C           72.07       25.32       -13.92      
C           79.95       20.74       -13.47      
C           78.99       20.05       -12.82      
S           79.27       22.21       -14.07      
H           76.83       20.13       -12.44      
H           79.22       19.25       -12.09      
C           77.66       20.52       -13.0       
C           77.62       21.71       -13.65      
C           83.83       20.89       -13.12      
C           83.45       19.61       -12.83      
S           82.46       21.93       -13.49      
H           81.52       18.52       -12.61      
H           84.13       18.9        -12.38      
C           82.05       19.41       -12.94      
C           81.39       20.51       -13.41      
C           87.56       21.79       -12.34      
C           87.01       22.92       -12.81      
S           86.46       20.46       -12.56      
H           85.0        23.49       -13.46      
H           87.52       23.79       -13.02      
C           85.66       22.68       -13.18      
C           85.2        21.48       -12.95      
C           93.49       22.71       -9.86       
C           92.3        22.29       -9.27       
C           93.52       22.72       -11.29      
C           91.19       22.13       -10.12      
C           91.31       22.18       -11.52      
C           89.92       21.82       -9.57       
C           92.51       22.45       -12.1       
C           92.79       22.44       -13.55      
N           91.67       22.15       -14.38      
C           90.38       22.02       -13.83      
C           89.66       21.67       -8.11       
N           90.8        21.76       -7.28       
C           92.11       22.05       -7.78       
O           88.58       21.45       -7.58       
O           92.98       22.23       -6.94       
O           93.83       22.95       -14.01      
O           89.48       21.85       -14.66      
C           91.83       22.53       -15.83      
C           90.65       21.62       -5.81       
H           92.19       23.52       -16.0       
H           90.87       22.46       -16.35      
H           92.48835    21.82262    -16.33427   
H           91.54       21.07       -5.45       
H           89.86       20.87       -5.62       
H           90.46818    22.5501     -5.27152    
H           94.4        23.07       -11.81      
H           87.83       21.48       -9.89       
C           88.84       21.75       -10.33      
C           90.15       22.05       -12.34      
C           88.93       21.82       -11.75      
C           96.54       24.26       -7.94       
C           96.97       23.64       -9.0        
S           94.81       24.4        -7.94       
H           96.21       22.37       -10.58      
H           98.03       23.55       -9.24       
C           95.92       23.08       -9.74       
C           94.65       23.2        -9.2        
C           99.04       26.31       -5.88       
C           97.84       26.32       -5.2        
S           98.89       25.45       -7.38       
H           95.76       25.68       -5.58       
H           97.72       26.75       -4.23       
C           96.81       25.66       -5.88       
C           97.26       25.05       -7.0        
C           102.43      27.44       -4.22       
C           102.4       27.71       -5.51       
S           100.88      26.91       -3.7        
H           101.13      27.43       -7.29       
H           103.3       28.15       -5.93       
C           101.21      27.39       -6.17       
C           100.33      26.86       -5.4        
C           107.77      27.89       -0.43       
C           107.06      26.83       -0.95       
C           107.52      29.17       -0.99       
C           106.0       27.14       -1.84       
C           105.59      28.37       -2.28       
C           105.11      26.09       -2.14       
C           106.46      29.44       -1.93       
C           106.31      30.93       -2.25       
N           105.16      31.17       -2.99       
C           104.22      30.14       -3.38       
C           105.26      24.63       -1.71       
N           106.5       24.43       -1.13       
C           107.42      25.42       -0.69       
O           104.45      23.68       -2.04       
O           108.44      25.11       -0.12       
O           107.14      31.76       -1.96       
O           103.22      30.52       -3.96       
C           105.15      32.44       -3.79       
C           107.0       23.09       -0.74       
H           104.38      32.44       -4.52       
H           106.15      32.5        -4.34       
H           105.02341   33.33315    -3.17816    
H           108.08      23.04       -0.99       
H           106.51      22.36       -1.38       
H           106.78734   22.74534    0.27197     
H           108.18      29.99       -0.6        
H           103.29      25.48       -3.0        
C           103.93      26.34       -2.86       
C           104.46      28.68       -2.96       
C           103.59      27.59       -3.36       
C           109.86      27.94       2.95        
C           110.68      28.41       1.94        
S           108.4       27.29       2.22        
H           110.62      28.73       -0.27       
H           111.64      28.95       2.08        
C           110.09      28.34       0.61        
C           108.82      27.76       0.59        
C           110.52      27.34       6.81        
C           110.87      28.6        6.52        
S           109.91      26.58       5.38        
H           111.06      29.88       4.75        
H           111.2       29.25       7.22        
C           110.7       28.93       5.17        
C           110.13      28.0        4.4         
C           110.46      25.98       10.54       
C           110.43      24.95       9.76        
S           110.67      27.42       9.62        
H           110.59      24.44       7.61        
H           110.48      23.93       10.2        
C           110.5       25.22       8.33        
C           110.55      26.58       8.07        
C           110.02      26.17       17.17       
C           109.35      26.79       16.14       
C           110.88      25.09       16.86       
C           109.68      26.42       14.8        
C           110.61      25.41       14.4        
C           109.11      27.09       13.75       
C           111.13      24.72       15.54       
C           112.17      23.62       15.38       
N           112.6       23.43       14.01       
C           111.97      24.05       12.82       
C           108.24      28.22       13.92       
N           107.88      28.53       15.23       
C           108.33      27.83       16.33       
O           107.82      28.91       12.95       
O           107.99      28.13       17.45       
O           112.54      23.03       16.36       
O           112.2       23.58       11.73       
C           113.92      22.68       13.9        
C           106.83      29.57       15.32       
H           114.28      22.59       12.86       
H           113.72      21.64       14.25       
H           114.71256   23.14833    14.48362    
H           106.25      29.51       16.27       
H           106.05      29.34       14.51       
H           107.22779   30.58192    15.24323    
H           111.52      24.6        17.67       
H           108.94      27.39       11.7        
C           109.43      26.83       12.46       
C           110.93      25.11       13.03       
C           110.38      25.9        12.03       
C           110.57      27.58       20.79       
C           110.66      26.24       20.9        
S           110.41      28.07       19.19       
H           110.44      24.48       19.62       
H           111.02      25.78       21.81       
C           110.47      25.53       19.67       
C           110.16      26.44       18.62       
C           111.8       30.92       22.4        
C           111.11      30.3        23.37       
S           111.92      29.85       21.05       
H           109.9       28.43       23.61       
H           110.84      30.81       24.3        
C           110.52      29.0        23.03       
C           110.85      28.67       21.72       
C           112.98      34.67       22.46       
C           113.12      34.18       21.25       
S           112.33      33.39       23.45       
H           112.71      32.37       20.07       
H           113.42      34.87       20.48       
C           112.64      32.89       21.0        
C           112.35      32.27       22.19       
C           112.77      41.02       24.21       
C           112.27      40.34       23.08       
C           113.51      40.34       25.15       
C           112.58      38.95       22.92       
C           113.35      38.24       23.92       
C           112.07      38.26       21.82       
C           113.72      38.99       25.05       
C           114.22      38.38       26.28       
N           114.44      36.98       26.19       
C           114.26      36.21       25.03       
C           111.29      38.92       20.7        
N           110.85      40.23       21.02       
C           111.25      40.95       22.17       
O           110.81      38.19       19.82       
O           110.77      42.04       22.25       
O           114.57      39.06       27.23       
O           114.57      35.01       24.99       
C           114.96      36.27       27.4        
C           110.25      40.97       19.89       
H           115.85      36.79       27.61       
H           115.13      35.24       27.21       
H           114.25293   36.2564     28.22944    
H           109.4       41.51       20.21       
H           109.79      40.22       19.17       
H           110.95407   41.68104    19.4578     
H           113.86      40.77       26.09       
H           111.69      36.29       21.0        
C           112.31      36.86       21.72       
C           113.55      36.83       23.86       
C           113.09      36.11       22.68       
C           112.34      45.04       24.86       
C           112.12      44.3        26.02       
S           112.65      43.89       23.58       
H           112.03      42.19       26.59       
H           111.91      44.76       26.95       
C           112.15      42.88       25.81       
C           112.5       42.45       24.58       
C           111.54      48.8        25.31       
C           112.14      48.67       24.08       
S           111.43      47.23       25.97       
H           113.07      47.11       22.86       
H           112.21      49.54       23.45       
C           112.53      47.36       23.76       
C           112.14      46.42       24.64       
H           67.38       42.78       10.6        
H           111.11      49.73       25.73       
