512

C           78.28       42.03       32.92       
C           78.88       43.03       33.67       
S           79.5        41.39       31.88       
H           80.8        44.02       33.89       
H           78.4        43.56       34.42       
C           80.3        43.19       33.42       
C           80.76       42.5        32.38       
C           71.9        40.28       34.08       
C           72.82       40.07       33.04       
C           72.5        40.66       35.3        
C           74.13       40.52       33.11       
C           74.7        40.96       34.39       
C           74.99       40.59       32.04       
C           73.87       40.91       35.49       
C           74.42       41.24       36.79       
N           75.73       41.5        36.84       
C           76.62       41.63       35.81       
C           74.68       39.88       30.77       
N           73.49       39.23       30.76       
C           72.44       39.39       31.76       
O           75.49       39.83       29.84       
O           71.41       38.74       31.69       
O           73.69       41.21       37.83       
O           77.81       41.89       36.16       
C           76.21       41.73       38.21       
C           73.12       38.46       29.52       
H           77.17       42.28       38.23       
H           75.5        42.51       38.72       
H           76.38885    40.77851    38.71078    
H           72.67       37.55       29.89       
H           73.97       38.03       29.08       
H           72.56145    39.00405    28.75834    
H           71.87       40.67       36.17       
H           76.94       41.1        31.17       
C           76.3        41.1        32.08       
C           76.09       41.39       34.4        
C           76.89       41.56       33.21       
C           68.11       40.39       33.22       
C           68.21       39.8        34.41       
S           69.64       40.92       32.62       
H           69.79       39.15       35.71       
H           67.33       39.39       34.89       
C           69.55       39.72       34.86       
C           70.43       40.25       33.97       
C           64.7        41.78       31.77       
C           65.73       42.07       30.93       
S           65.34       40.98       33.19       
H           67.92       41.74       30.72       
H           65.53       42.69       30.05       
C           67.01       41.53       31.36       
C           67.0        40.88       32.48       
C           60.89       42.48       30.68       
C           60.92       42.33       32.08       
S           62.55       42.28       30.07       
H           62.35       42.15       33.67       
H           60.07       42.35       32.71       
C           62.26       42.13       32.62       
C           63.28       42.13       31.69       
C           56.22       44.44       26.51       
C           56.83       43.18       26.7        
C           56.57       45.52       27.34       
C           57.76       43.03       27.76       
C           58.07       44.09       28.67       
C           58.42       41.81       28.0        
C           57.41       45.33       28.41       
C           57.66       46.49       29.27       
N           58.54       46.39       30.36       
C           59.25       45.16       30.67       
C           58.23       40.66       27.18       
N           57.26       40.81       26.18       
C           56.55       41.95       25.89       
O           58.73       39.53       27.42       
O           55.69       41.99       25.01       
O           57.04       47.51       29.1        
O           59.97       45.04       31.7        
C           59.07       47.54       31.11       
C           56.88       39.7        25.26       
H           59.19       48.35       30.38       
H           60.12       47.4        31.58       
H           58.31715    47.86671    31.82734    
H           55.78       39.69       24.97       
H           57.22       38.86       25.85       
H           57.49856    39.76549    24.36491    
H           56.16       46.55       27.15       
H           60.06       40.81       29.01       
C           59.39       41.73       29.06       
C           59.03       43.96       29.74       
C           59.69       42.75       29.9        
C           54.19       46.12       23.55       
C           53.41       45.14       24.09       
S           55.64       46.32       24.52       
H           53.61       43.51       25.7        
H           52.57       44.9        23.56       
C           54.04       44.4        25.2        
C           55.27       44.94       25.51       
C           52.91       47.97       20.34       
C           54.14       48.49       20.58       
S           52.48       46.71       21.44       
H           55.77       48.11       22.02       
H           54.65       49.13       19.9        
C           54.74       47.92       21.76       
C           53.9        47.01       22.36       
C           50.88       46.87       17.21       
C           51.05       48.22       17.13       
S           51.69       46.33       18.61       
H           51.98       49.96       18.22       
H           50.75       48.71       16.2        
C           51.76       48.88       18.21       
C           52.09       47.96       19.18       
C           49.48       42.24       12.67       
C           48.88       42.68       13.88       
C           50.51       43.07       12.23       
C           49.38       43.78       14.63       
C           50.44       44.61       14.16       
C           48.8        44.1        15.85       
C           50.98       44.2        12.92       
C           52.2        44.8        12.28       
N           52.72       45.9        13.02       
C           52.14       46.43       14.19       
C           47.69       43.36       16.5        
N           47.22       42.35       15.69       
C           47.72       42.01       14.44       
O           47.44       43.52       17.65       
O           47.1        41.15       13.75       
O           52.7        44.35       11.29       
O           52.67       47.45       14.8        
C           53.46       46.87       12.22       
C           46.41       41.35       16.39       
H           53.42       47.87       12.59       
H           52.88       46.96       11.28       
H           54.44723    46.54329    11.89329    
H           45.81       40.73       15.68       
H           45.81       41.96       17.05       
H           47.08292    40.74017    16.99282    
H           50.86       42.86       11.19       
H           49.07       45.29       17.52       
C           49.46       45.1        16.53       
C           50.97       45.73       14.85       
C           50.46       45.98       16.12       
C           48.93       38.98       10.43       
C           48.32       40.04       9.79        
S           49.61       39.55       11.99       
H           48.11       42.26       10.15       
H           47.79       39.92       8.84        
C           48.48       41.34       10.48       
C           49.13       41.21       11.71       
C           48.99       35.73       8.35        
C           49.63       35.43       9.47        
S           48.46       37.36       8.31        
H           50.27       36.55       11.26       
H           50.23       34.57       9.57        
C           49.73       36.55       10.35       
C           49.08       37.68       9.86        
C           49.42       33.09       5.29        
C           48.38       33.97       5.09        
S           50.07       33.52       6.8         
H           47.2        35.6        6.08        
H           47.76       33.83       4.19        
C           48.07       34.91       6.17        
C           48.93       34.82       7.19        
C           51.37       28.77       0.71        
C           51.18       30.18       0.68        
C           51.24       28.13       1.96        
C           50.76       30.81       1.86        
C           50.51       30.13       3.07        
C           50.53       32.15       1.94        
C           50.68       28.7        3.07        
C           50.33       27.84       4.16        
N           49.83       28.46       5.31        
C           49.79       29.9        5.43        
C           50.92       33.07       0.8         
N           51.33       32.46       -0.41       
C           51.6        31.06       -0.5        
O           50.83       34.32       0.98        
O           52.14       30.7        -1.47       
O           50.46       26.66       4.1         
O           49.41       30.28       6.57        
C           48.93       27.63       6.15        
C           51.81       33.35       -1.51       
H           48.28       26.97       5.63        
H           48.24       28.19       6.76        
H           49.49057    26.97946    6.8213      
H           52.78       33.05       -1.94       
H           51.82       34.38       -1.13       
H           51.07927    33.31487    -2.31802    
H           51.29       27.09       1.87        
H           49.97       33.94       3.06        
C           50.08       32.82       3.07        
C           49.99       30.74       4.24        
C           49.8        32.15       4.25        
C           51.42       26.0        -2.27       
C           50.68       27.1        -2.63       
S           51.91       26.26       -0.63       
H           50.36       29.16       -1.71       
H           50.27       27.22       -3.59       
C           50.65       28.13       -1.6        
C           51.26       27.8        -0.44       
C           53.16       23.03       -4.08       
C           51.79       22.88       -4.35       
S           53.47       24.41       -3.1        
H           50.03       23.95       -4.04       
H           51.42       22.21       -5.06       
C           51.05       23.89       -3.7        
C           51.77       24.78       -2.96       
C           56.73       21.55       -4.77       
C           55.9        20.99       -5.72       
S           55.83       22.7        -3.86       
H           53.7        21.14       -6.22       
H           56.25       20.26       -6.44       
C           54.52       21.46       -5.6        
C           54.34       22.38       -4.61       
C           63.26       20.98       -4.42       
C           62.42       21.15       -5.54       
C           62.69       20.64       -3.22       
C           61.01       21.08       -5.32       
C           60.48       20.83       -4.05       
C           60.06       21.39       -6.36       
C           61.32       20.6        -2.93       
C           60.86       20.29       -1.57       
N           59.54       20.62       -1.33       
C           58.61       20.78       -2.37       
C           60.44       21.74       -7.71       
N           61.86       21.84       -7.9        
C           62.83       21.61       -6.9        
O           59.58       22.07       -8.56       
O           64.0        21.77       -7.24       
O           61.58       20.11       -0.55       
O           57.35       20.8        -2.06       
C           59.01       20.48       0.01        
C           62.31       22.27       -9.23       
H           58.79       19.43       0.15        
H           58.1        21.1        -0.01       
H           59.55404    20.91666    0.84753     
H           63.22       22.89       -9.22       
H           61.58       22.89       -9.76       
H           62.60286    21.36284    -9.75858    
H           63.3        20.3        -2.36       
H           58.08       21.61       -6.93       
C           58.71       21.35       -6.08       
C           59.08       20.9        -3.74       
C           58.18       21.15       -4.8        
C           66.82       22.07       -3.62       
C           66.88       20.93       -4.35       
S           65.22       22.63       -3.42       
H           65.47       19.53       -5.24       
H           67.78       20.44       -4.62       
C           65.6        20.4        -4.68       
C           64.67       21.24       -4.28       
C           70.28       23.16       -2.29       
C           69.35       24.02       -1.76       
S           69.47       21.88       -3.21       
H           67.18       24.48       -2.05       
H           69.49       24.91       -1.15       
C           68.01       23.8        -2.25       
C           67.94       22.72       -3.04       
C           74.07       23.89       -1.78       
C           73.96       22.59       -2.26       
S           72.52       24.46       -1.29       
H           72.31       21.28       -2.82       
H           74.8        21.89       -2.21       
C           72.58       22.26       -2.56       
C           71.69       23.17       -2.17       
C           80.32       25.6        -0.52       
C           79.28       26.12       -1.35       
C           79.91       24.41       0.17        
C           78.0        25.53       -1.37       
C           77.64       24.43       -0.53       
C           76.97       26.08       -2.18       
C           78.69       23.9        0.24        
C           78.45       22.69       1.16        
N           77.08       22.32       1.21        
C           76.04       22.77       0.37        
C           77.21       27.25       -3.03       
N           78.46       27.93       -2.93       
C           79.49       27.4        -2.18       
O           76.27       27.7        -3.71       
O           80.55       28.09       -2.17       
O           79.26       22.19       1.89        
O           74.92       22.37       0.45        
C           76.73       21.06       1.9         
C           78.84       28.99       -3.86       
H           77.64       20.45       1.8         
H           75.88       20.64       1.46        
H           76.47275    21.33811    2.92205     
H           79.41       29.88       -3.39       
H           77.87       29.32       -4.09       
H           79.28006    28.62558    -4.78825    
H           80.68       23.99       0.77        
H           75.07       25.77       -3.05       
C           75.74       25.48       -2.28       
C           76.39       23.86       -0.63       
C           75.43       24.39       -1.44       
C           84.22       26.07       0.29        
C           84.04       26.34       -1.04       
S           82.68       25.67       0.96        
H           82.33       26.43       -2.55       
H           84.89       26.71       -1.65       
C           82.68       26.22       -1.56       
C           81.81       25.87       -0.53       
C           87.35       26.86       2.39        
C           86.63       25.83       3.02        
S           86.51       27.4        0.95        
H           84.83       24.6        2.51        
H           86.99       25.28       3.92        
C           85.5        25.32       2.22        
C           85.35       26.12       1.12        
C           91.05       27.73       3.2         
C           90.42       28.95       2.73        
S           89.91       26.46       3.23        
H           88.47       29.54       2.02        
H           90.92       29.86       2.49        
C           89.05       28.73       2.41        
C           88.59       27.48       2.68        
C           97.6        27.08       3.99        
C           96.82       27.45       2.88        
C           96.93       26.68       5.19        
C           95.39       27.45       3.04        
C           94.69       27.05       4.26        
C           94.59       27.99       1.96        
C           95.52       26.55       5.35        
C           95.02       25.95       6.59        
N           93.61       25.93       6.64        
C           92.78       26.51       5.62        
C           95.13       28.32       0.62        
N           96.51       28.19       0.47        
C           97.36       27.85       1.58        
O           94.39       28.65       -0.24       
O           98.56       27.76       1.45        
O           95.8        25.51       7.42        
O           91.58       26.69       5.86        
C           92.94       25.02       7.59        
C           97.15       28.22       -0.83       
H           93.57       24.13       7.78        
H           92.0        24.57       7.14        
H           92.59883    25.57441    8.46426     
H           98.07       28.83       -0.74       
H           96.54       28.78       -1.5        
H           97.42175    27.22357    -1.1784     
H           97.53       26.36       6.06        
H           92.59       28.41       1.36        
C           93.24       28.09       2.2         
C           93.33       27.06       4.38        
C           92.53       27.65       3.36        
C           101.51      27.07       5.08        
C           101.15      28.25       4.53        
S           100.01      26.11       5.23        
H           99.29       29.07       3.48        
H           101.85      29.02       4.41        
C           99.75       28.27       4.08        
C           99.01       27.17       4.34        
C           104.83      26.8        7.07        
C           104.18      25.65       7.23        
S           103.89      27.9        6.12        
H           102.2       24.67       6.57        
H           104.64      24.86       7.74        
C           102.93      25.57       6.48        
C           102.69      26.7        5.86        
C           107.72      28.83       8.5         
C           107.52      27.81       9.38        
S           106.98      28.52       7.05        
H           106.08      26.02       9.56        
H           107.97      27.82       10.38       
C           106.48      26.85       8.94        
C           106.08      27.12       7.69        
C           111.1       34.17       10.62       
C           111.31      32.81       10.72       
C           110.04      34.51       9.75        
C           110.41      31.92       10.06       
C           109.26      32.28       9.36        
C           110.55      30.53       10.24       
C           109.17      33.65       9.15        
C           108.09      34.29       8.35        
N           107.11      33.41       7.89        
C           107.2       31.97       7.94        
C           111.64      29.92       11.0        
N           112.4       30.85       11.71       
C           112.27      32.26       11.75       
O           111.7       28.75       11.22       
O           112.97      32.92       12.53       
O           107.96      35.52       8.12        
O           106.31      31.28       7.49        
C           105.9       33.93       7.2         
C           112.92      30.27       13.02       
H           105.46      33.16       6.53        
H           106.22      34.72       6.68        
H           105.18005   34.23278    7.96032     
H           113.59      31.02       13.46       
H           113.64      29.47       12.87       
H           112.14995   30.08921    13.76996    
H           109.86      35.53       9.61        
H           109.82      28.58       9.86        
C           109.67      29.65       9.74        
C           108.37      31.39       8.71        
C           108.56      30.01       8.92        
C           113.11      37.48       11.56       
C           113.89      36.58       10.91       
S           111.54      36.81       11.8        
H           113.71      34.41       10.34       
H           114.98      36.72       10.7        
C           113.26      35.29       10.78       
C           111.94      35.29       10.97       
C           114.82      40.71       13.18       
C           113.44      40.77       13.38       
S           115.18      39.3        12.37       
H           111.65      39.45       12.88       
H           113.01      41.44       14.0        
C           112.75      39.61       12.79       
C           113.54      38.71       12.22       
C           116.83      43.23       15.42       
C           117.7       42.36       14.84       
S           115.26      42.97       14.68       
H           117.63      40.62       13.5        
H           118.75      42.29       15.1        
C           117.08      41.37       13.97       
C           115.73      41.51       13.9        
C           118.59      48.52       19.18       
C           119.1       48.01       17.97       
C           117.59      47.74       19.83       
C           118.49      46.85       17.45       
C           117.35      46.16       18.06       
C           118.95      46.33       16.18       
C           116.93      46.64       19.28       
C           115.9       46.0        20.04       
N           115.28      44.87       19.41       
C           115.69      44.21       18.25       
C           120.12      46.86       15.48       
N           120.73      47.97       16.12       
C           120.32      48.58       17.26       
O           120.53      46.25       14.46       
O           120.88      49.65       17.6        
O           115.5       46.49       21.12       
O           115.16      43.21       17.94       
C           113.82      44.76       19.67       
C           122.14      48.23       15.8        
H           113.27      44.17       18.91       
H           113.45      45.75       19.58       
H           113.58057   44.34452    20.64885    
H           122.19      49.3        15.72       
H           122.38      47.7        14.85       
H           122.81042   47.87384    16.58216    
H           117.23      48.06       20.82       
H           118.75      44.65       14.75       
C           118.27      45.17       15.64       
C           116.78      44.91       17.51       
C           117.26      44.42       16.26       
C           119.1       51.95       21.14       
C           120.21      51.18       21.39       
S           117.96      51.18       20.09       
H           120.72      49.09       20.87       
H           120.92      51.49       22.1        
C           120.1       49.95       20.66       
C           118.99      49.8        19.86       
C           118.73      55.15       23.44       
C           117.51      54.82       22.94       
S           119.96      54.15       22.66       
H           116.72      53.29       21.61       
H           116.6       55.18       23.23       
C           117.59      53.77       22.0        
C           118.8       53.15       21.9        
C           120.22      56.87       26.67       
C           119.11      57.59       26.27       
S           120.55      55.67       25.44       
H           117.54      57.41       24.66       
H           118.75      58.45       26.78       
C           118.44      57.05       25.1        
C           119.05      55.95       24.55       
C           123.44      56.93       32.49       
C           122.07      56.89       32.12       
C           124.36      57.08       31.46       
C           121.64      57.03       30.78       
C           122.61      57.03       29.7        
C           120.28      56.99       30.33       
C           123.96      57.08       30.12       
C           125.05      57.25       29.15       
N           124.66      57.34       27.81       
C           123.34      57.19       27.39       
C           119.18      56.86       31.27       
N           119.64      56.73       32.58       
C           120.97      56.71       33.06       
O           118.03      56.88       30.86       
O           121.23      56.44       34.28       
O           126.25      56.96       29.48       
O           123.2       57.23       26.24       
C           125.35      58.27       26.89       
C           118.54      56.62       33.61       
H           124.61      58.88       26.29       
H           125.88      57.73       26.11       
H           125.93644   59.04954    27.37632    
H           118.67      55.83       34.35       
H           117.66      56.24       33.15       
H           118.31505   57.55496    34.12317    
H           125.42      57.26       31.71       
H           118.88      56.86       28.7        
C           119.95      56.95       28.99       
C           122.23      57.04       28.32       
C           120.9       57.04       27.98       
C           124.94      57.28       35.99       
C           125.78      56.4        35.34       
S           123.75      57.98       34.97       
H           125.64      55.4        33.32       
H           126.7       56.04       35.7        
C           125.28      56.11       34.01       
C           124.09      56.82       33.77       
C           125.74      58.73       39.59       
C           124.54      59.2        39.23       
S           126.43      57.75       38.36       
H           123.13      58.86       37.51       
H           123.93      59.83       39.81       
C           124.12      58.69       37.97       
C           125.06      57.95       37.32       
H           81.61       42.84       31.61       
H           126.26      59.08       40.5        
