512

C           81.37       21.53       22.74       
C           81.76       22.83       22.51       
S           82.84       20.64       23.07       
H           83.6        24.1        22.46       
H           80.98       23.51       22.27       
C           83.17       23.12       22.61       
C           83.84       22.04       23.09       
C           75.13       19.25       23.06       
C           75.79       20.35       23.56       
C           75.91       18.36       22.33       
C           77.17       20.61       23.32       
C           77.95       19.66       22.59       
C           77.84       21.72       23.79       
C           77.25       18.52       22.14       
C           77.92       17.46       21.41       
N           79.28       17.67       21.13       
C           80.08       18.86       21.49       
C           77.17       22.73       24.59       
N           75.81       22.53       24.87       
C           75.07       21.41       24.39       
O           77.75       23.74       24.98       
O           73.87       21.31       24.82       
O           77.27       16.43       21.01       
O           81.28       18.85       21.18       
C           79.98       16.58       20.37       
C           75.23       23.33       25.95       
H           79.31       16.15       19.61       
H           80.82       17.06       19.82       
H           80.29632    15.81276    21.07667    
H           74.16       23.39       25.85       
H           75.68       24.33       25.92       
H           75.4173     22.89055    26.92975    
H           75.41       17.44       21.89       
H           79.61       22.85       23.92       
C           79.17       21.97       23.53       
C           79.32       19.91       22.3        
C           79.91       21.12       22.68       
C           71.57       17.67       23.93       
C           71.66       17.94       22.6        
S           73.06       18.26       24.73       
H           73.19       18.74       21.19       
H           70.94       17.65       21.84       
C           72.89       18.52       22.2        
C           73.73       18.86       23.25       
C           68.6        15.55       25.1        
C           68.94       16.38       26.12       
S           69.71       15.66       23.73       
H           70.39       17.97       26.47       
H           68.59       16.31       27.13       
C           70.07       17.2        25.79       
C           70.57       16.95       24.55       
C           66.33       12.53       25.85       
C           66.54       12.55       24.48       
S           67.15       13.85       26.59       
H           67.44       13.82       22.95       
H           66.11       11.74       23.86       
C           67.28       13.63       23.99       
C           67.68       14.44       25.05       
C           63.61       7.55        29.18       
C           63.11       8.42        28.2        
C           64.97       7.68        29.59       
C           64.01       9.37        27.64       
C           65.36       9.6         28.1        
C           63.55       10.24       26.65       
C           65.75       8.69        29.1        
C           67.12       8.75        29.67       
N           67.92       9.83        29.26       
C           67.56       10.72       28.2        
C           62.24       10.14       25.97       
N           61.4        9.21        26.56       
C           61.69       8.39        27.67       
O           61.88       10.84       25.0        
O           60.92       7.49        28.03       
O           67.48       8.07        30.63       
O           68.39       11.55       27.89       
C           68.66       10.52       30.36       
C           60.21       8.84        25.74       
H           68.11       10.37       31.28       
H           68.73       11.63       30.32       
H           69.6606     10.1113     30.50093    
H           60.1        7.75        25.65       
H           60.38       9.11        24.71       
H           59.30427    9.34239     26.07965    
H           65.32       7.04        30.34       
H           64.06       11.8        25.23       
C           64.41       11.15       26.06       
C           66.25       10.59       27.53       
C           65.74       11.37       26.46       
C           62.59       3.97        30.56       
C           61.59       4.82        31.02       
S           63.72       4.87        29.63       
H           61.25       7.05        30.98       
H           60.76       4.47        31.64       
C           61.85       6.23        30.67       
C           62.98       6.36        29.86       
C           62.0        0.1         30.84       
C           63.33       0.35        30.63       
S           61.14       1.61        30.84       
H           64.68       2.16        30.43       
H           64.07       -0.47       30.54       
C           63.69       1.73        30.6        
C           62.61       2.56        30.65       
C           60.57       -3.58       30.7        
C           59.58       -2.7        30.31       
S           62.06       -2.63       30.87       
H           59.21       -0.5        30.44       
H           58.6        -3.0        30.01       
C           59.92       -1.33       30.53       
C           61.21       -1.15       30.91       
C           60.62       -10.02      29.24       
C           60.2        -8.85       28.55       
C           61.16       -9.85       30.49       
C           60.27       -7.57       29.18       
C           60.75       -7.41       30.49       
C           59.94       -6.37       28.53       
C           61.27       -8.6        31.11       
C           61.81       -8.61       32.49       
N           61.87       -7.29       33.11       
C           61.29       -6.12       32.52       
C           59.53       -6.33       27.11       
N           59.38       -7.6        26.49       
C           59.69       -8.86       27.16       
O           59.28       -5.29       26.64       
O           59.66       -9.88       26.52       
O           62.07       -9.65       33.11       
O           61.57       -5.06       33.08       
C           61.88       -7.36       34.59       
C           59.16       -7.67       25.07       
H           61.24       -8.17       34.89       
H           61.7        -6.47       35.08       
H           62.89236    -7.54936    34.94688    
H           59.78       -8.36       24.45       
H           59.51       -6.78       24.59       
H           58.10041    -7.80154    24.85077    
H           61.5        -10.76      31.01       
H           59.74       -4.35       28.57       
C           59.92       -5.21       29.21       
C           60.79       -6.12       31.11       
C           60.36       -4.98       30.48       
C           61.02       -13.84      28.31       
C           59.67       -13.52      28.24       
S           61.92       -12.47      28.81       
H           58.47       -11.7       28.49       
H           58.87       -14.27      27.99       
C           59.43       -12.13      28.42       
C           60.54       -11.45      28.8        
C           62.14       -17.23      26.81       
C           62.89       -17.02      27.93       
S           60.9        -16.03      26.66       
H           63.29       -15.41      29.35       
H           63.71       -17.69      28.18       
C           62.65       -15.79      28.53       
C           61.64       -15.1       28.0        
C           62.33       -20.57      24.75       
C           61.36       -19.81      24.26       
S           63.21       -19.74      25.94       
H           60.55       -17.85      24.53       
H           60.81       -20.19      23.47       
C           61.25       -18.55      24.84       
C           62.08       -18.33      25.88       
C           65.73       -25.25      21.31       
C           65.31       -23.92      21.04       
C           65.41       -25.69      22.58       
C           64.57       -23.14      22.03       
C           64.29       -23.69      23.33       
C           64.16       -21.79      21.8        
C           64.79       -24.94      23.6        
C           64.65       -25.61      24.88       
N           63.91       -24.92      25.85       
C           63.36       -23.64      25.63       
C           64.47       -21.1       20.54       
N           65.18       -21.84      19.62       
C           65.63       -23.17      19.77       
O           64.15       -19.89      20.34       
O           66.14       -23.63      18.81       
O           65.33       -26.62      25.25       
O           62.73       -23.08      26.54       
C           63.61       -25.66      27.1        
C           65.26       -21.33      18.27       
H           63.59       -26.73      26.84       
H           62.67       -25.38      27.43       
H           64.37013    -25.55865   27.87461    
H           66.28       -21.51      17.94       
H           65.28       -20.31      18.35       
H           64.49515    -21.70534   17.59013    
H           65.76       -26.64      22.87       
H           63.26       -20.07      22.42       
C           63.44       -21.11      22.73       
C           63.5        -22.97      24.3        
C           63.02       -21.64      23.98       
C           67.93       -28.04      19.46       
C           66.97       -27.62      18.56       
S           67.72       -27.21      20.95       
H           65.36       -26.04      18.46       
H           66.94       -27.92      17.53       
C           66.07       -26.57      19.09       
C           66.35       -26.26      20.42       
C           70.84       -30.43      18.25       
C           70.64       -30.56      19.57       
S           69.69       -29.29      17.65       
H           69.4        -29.61      21.14       
H           71.28       -31.18      20.16       
C           69.6        -29.73      20.11       
C           68.95       -29.06      19.21       
C           73.54       -32.71      16.55       
C           73.11       -31.77      15.58       
S           72.69       -32.39      18.04       
H           71.59       -30.21      15.4        
H           73.52       -31.73      14.6        
C           71.97       -31.0       16.01       
C           71.71       -31.16      17.36       
C           78.75       -36.62      16.55       
C           78.63       -35.19      16.65       
C           77.56       -37.34      16.3        
C           77.37       -34.64      16.48       
C           76.17       -35.43      16.38       
C           77.04       -33.29      16.66       
C           76.31       -36.83      16.36       
C           75.21       -37.83      16.3        
N           73.9        -37.31      16.47       
C           73.66       -35.89      16.6        
C           78.12       -32.34      17.02       
N           79.37       -32.89      17.09       
C           79.74       -34.29      16.88       
O           77.96       -31.15      17.25       
O           80.8        -34.7       17.17       
O           75.46       -39.06      16.24       
O           72.52       -35.44      16.8        
C           72.87       -38.16      17.16       
C           80.56       -32.02      17.31       
H           72.06       -37.52      17.52       
H           73.36       -38.63      18.0        
H           72.42048    -38.84465   16.44077    
H           81.35       -32.47      17.87       
H           80.23       -31.26      18.04       
H           80.91071    -31.56408   16.38413    
H           77.59       -38.45      16.29       
H           75.68       -31.72      16.72       
C           75.81       -32.83      16.56       
C           74.83       -34.98      16.4        
C           74.65       -33.6       16.31       
C           81.83       -38.95      15.73       
C           81.01       -39.62      16.58       
S           81.18       -37.43      15.35       
H           79.29       -39.21      17.86       
H           81.25       -40.63      16.93       
C           79.98       -38.83      17.08       
C           79.94       -37.52      16.57       
C           85.22       -39.36      13.85       
C           84.68       -40.58      14.0        
S           84.28       -38.22      14.67       
H           82.82       -41.44      14.86       
H           85.19       -41.5       13.74       
C           83.41       -40.57      14.68       
C           83.07       -39.37      15.1        
C           88.78       -38.88      12.41       
C           88.79       -38.32      13.65       
S           87.24       -39.5       11.99       
H           87.31       -38.25      15.39       
H           89.64       -37.94      14.16       
C           87.51       -38.48      14.32       
C           86.6        -39.06      13.54       
C           93.6        -37.96      7.96        
C           92.72       -37.12      8.61        
C           93.67       -39.32      8.36        
C           91.87       -37.59      9.61        
C           91.88       -39.01      9.97        
C           90.91       -36.79      10.29       
C           92.83       -39.85      9.32        
C           92.99       -41.3       9.75        
N           92.1        -41.76      10.79       
C           90.97       -40.99      11.22       
C           90.73       -35.41      9.89        
N           91.63       -34.98      8.99        
C           92.7        -35.66      8.42        
O           89.89       -34.74      10.51       
O           93.45       -35.04      7.7         
O           93.93       -41.91      9.3         
O           90.22       -41.5       11.96       
C           92.61       -42.92      11.56       
C           91.57       -33.47      8.67        
H           93.19       -43.53      10.92       
H           91.67       -43.39      11.92       
H           93.21806    -42.58769   12.40139    
H           92.51       -33.05      8.29        
H           91.51       -33.01      9.6         
H           90.76732    -33.23473   7.97111     
H           94.45       -39.97      7.93        
H           89.23       -36.75      11.6        
C           90.03       -37.35      11.17       
C           90.9        -39.52      10.9        
C           89.95       -38.65      11.47       
C           96.96       -37.14      6.06        
C           96.32       -38.1       5.39        
S           95.94       -36.56      7.34        
H           94.54       -39.45      5.75        
H           96.8        -38.6       4.56        
C           95.1        -38.5       6.0         
C           94.72       -37.73      7.02        
C           100.2       -35.07      5.65        
C           100.0       -35.68      4.46        
S           99.0        -35.63      6.82        
H           98.42       -37.07      3.63        
H           100.67      -35.58      3.62        
C           98.85       -36.59      4.45        
C           98.2        -36.61      5.67        
C           101.87      -31.68      6.36        
C           102.12      -32.54      7.37        
S           100.96      -32.47      5.16        
H           101.71      -34.67      8.0         
H           102.71      -32.21      8.22        
C           101.64      -33.88      7.21        
C           101.11      -34.02      5.98        
C           102.8       -25.19      6.28        
C           101.6       -25.96      6.15        
C           103.99      -25.87      6.54        
C           101.76      -27.38      6.27        
C           103.02      -28.06      6.46        
C           100.61      -28.22      6.22        
C           104.14      -27.21      6.66        
C           105.5       -27.65      6.95        
N           105.64      -29.04      7.15        
C           104.53      -29.96      6.84        
C           99.24       -27.69      6.16        
N           99.08       -26.32      6.22        
C           100.2       -25.38      6.24        
O           98.25       -28.36      6.39        
O           99.94       -24.21      6.41        
O           106.46      -26.92      7.05        
O           104.83      -31.16      6.92        
C           106.99      -29.66      7.16        
C           97.76       -25.76      6.53        
H           107.53      -28.96      6.46        
H           107.14      -30.68      6.76        
H           107.40937   -29.59125   8.16374     
H           97.91       -25.07      7.35        
H           97.1        -26.53      7.03        
H           97.24215    -25.28414   5.69724     
H           104.83      -25.25      6.66        
H           99.92       -30.24      6.47        
C           100.81      -29.6       6.38        
C           103.15      -29.46      6.58        
C           102.02      -30.27      6.44        
C           103.28      -21.29      6.59        
C           102.46      -21.52      5.54        
S           103.9       -22.78      7.23        
H           101.68      -23.24      4.55        
H           101.91      -20.72      5.03        
C           102.33      -22.89      5.3         
C           102.95      -23.73      6.14        
C           104.1       -17.59      7.15        
C           104.72      -18.3       8.15        
S           103.08      -18.62      6.21        
H           105.0       -20.43      8.74        
H           105.38      -17.9       8.91        
C           104.48      -19.68      8.05        
C           103.68      -20.0       7.05        
C           104.96      -13.98      5.77        
C           103.68      -13.96      6.13        
S           105.78      -15.44      6.3         
H           102.33      -15.49      6.99        
H           103.0       -13.09      5.99        
C           103.31      -15.22      6.7         
C           104.3       -16.19      6.85        
C           106.5       -8.6        2.24        
C           106.95      -9.09       3.42        
C           105.47      -9.29       1.58        
C           106.5       -10.32      3.9         
C           105.53      -11.07      3.17        
C           106.97      -10.92      5.13        
C           104.89      -10.48      2.05        
C           103.78      -11.1       1.27        
N           103.38      -12.36      1.77        
C           103.98      -13.0       2.88        
C           107.9       -10.24      6.03        
N           108.36      -9.03       5.48        
C           107.91      -8.38       4.3         
O           108.32      -10.66      7.11        
O           108.34      -7.25       3.95        
O           103.22      -10.55      0.32        
O           103.54      -14.11      3.26        
C           102.4       -13.14      0.99        
C           109.31      -8.22       6.35        
H           102.5       -14.17      1.22        
H           102.7       -13.02      -0.07       
H           101.36953   -12.82513   1.15459     
H           109.96      -7.64       5.69        
H           110.02      -8.9        6.84        
H           108.82279   -7.6075     7.10866     
H           105.06      -8.88       0.62        
H           106.59      -12.43      6.58        
C           106.37      -12.06      5.6         
C           105.02      -12.32      3.7         
C           105.43      -12.85      4.91        
C           108.43      -5.81       0.3         
C           107.19      -5.35       0.63        
S           108.53      -7.48       0.76        
H           105.43      -6.09       1.68        
H           106.9       -4.36       0.42        
C           106.39      -6.31       1.29        
C           106.97      -7.5        1.44        
C           110.72      -3.16       -1.56       
C           111.44      -4.36       -1.38       
S           109.13      -3.43       -0.93       
H           111.04      -6.33       -0.48       
H           112.5       -4.45       -1.64       
C           110.68      -5.34       -0.66       
C           109.46      -4.97       -0.31       
C           111.49      0.32        -3.1        
C           112.32      -0.54       -3.74       
S           110.35      -0.55       -2.11       
H           112.85      -2.67       -3.43       
H           113.02      -0.33       -4.56       
C           112.19      -1.86       -3.22       
C           111.17      -2.04       -2.37       
C           111.2       6.87        -4.01       
C           110.24      5.84        -3.77       
C           112.53      6.5         -4.05       
C           110.68      4.51        -3.61       
C           112.07      4.13        -3.69       
C           109.7       3.47        -3.47       
C           112.95      5.13        -3.97       
C           114.41      4.91        -4.34       
N           114.72      3.51        -4.2        
C           113.91      2.54        -3.79       
C           108.22      3.7         -3.45       
N           107.81      5.08        -3.61       
C           108.74      6.13        -3.66       
O           107.38      2.82        -3.3        
O           108.26      7.25        -3.98       
O           115.23      5.79        -4.67       
O           114.36      1.43        -3.71       
C           116.2       3.28        -4.25       
C           106.4       5.39        -4.0        
H           116.58      2.44        -3.77       
H           116.72      4.09        -3.72       
H           116.56795   3.28        -5.27602    
H           106.07      6.17        -3.41       
H           105.83      4.56        -3.7        
H           106.22656   5.5559      -5.06325    
H           113.24      7.3         -4.14       
H           109.29      1.41        -3.3        
C           110.11      2.15        -3.37       
C           112.46      2.78        -3.7        
C           111.47      1.77        -3.48       
C           111.47      10.7        -4.69       
C           110.68      10.52       -3.59       
S           111.97      9.18        -5.31       
H           109.92      8.75        -2.32       
H           110.2       11.34       -3.16       
C           110.53      9.14        -3.18       
C           111.08      8.34        -4.12       
C           112.92      14.18       -5.73       
C           113.11      13.28       -6.72       
S           112.12      13.46       -4.41       
H           112.57      11.11       -7.07       
H           113.59      13.61       -7.56       
C           112.51      11.99       -6.45       
C           112.0       11.9        -5.22       
C           114.91      17.51       -5.92       
C           113.93      17.69       -5.06       
S           114.81      15.86       -6.6        
H           112.32      16.51       -4.1        
H           113.65      18.62       -4.5        
C           113.1       16.54       -4.86       
C           113.4       15.58       -5.73       
C           119.3       22.16       -7.96       
C           118.55      21.18       -8.6        
C           119.1       22.19       -6.56       
C           117.73      20.29       -7.84       
C           117.54      20.34       -6.44       
C           117.13      19.15       -8.45       
C           118.27      21.34       -5.82       
C           118.35      21.56       -4.41       
N           117.5       20.71       -3.74       
C           116.67      19.71       -4.29       
C           117.12      18.91       -9.9        
N           117.86      19.84       -10.65      
C           118.57      20.98       -10.08      
O           116.88      17.8        -10.3       
O           119.0       21.79       -10.86      
O           119.23      22.23       -3.95       
O           116.1       18.98       -3.45       
C           117.64      20.87       -2.27       
C           117.59      19.89       -12.06      
H           118.71      20.73       -1.95       
H           117.02      20.14       -1.73       
H           117.34188   21.87084    -1.95768    
H           117.63      20.85       -12.4       
H           116.56      19.58       -12.22      
H           118.24929   19.20173    -12.58888   
H           119.61      23.01       -6.05       
H           115.73      17.62       -8.4        
C           116.25      18.33       -7.8        
C           116.68      19.49       -5.73       
C           115.92      18.48       -6.41       
C           120.7       25.32       -9.84       
C           121.65      24.3        -9.94       
S           119.52      24.92       -8.58       
H           121.69      22.16       -9.43       
H           122.49      24.35       -10.62      
C           121.25      23.11       -9.24       
C           120.12      23.29       -8.56       
C           119.87      28.59       -11.88      
C           121.19      28.44       -11.79      
S           119.18      27.53       -10.69      
H           122.65      26.99       -11.05      
H           121.84      29.1        -12.36      
C           121.63      27.24       -11.18      
C           120.63      26.6        -10.56      
H           84.67       22.16       23.75       
H           119.34      28.73       -12.78      
