512

C           68.88       7.76        19.61       
C           69.84       8.66        19.89       
S           67.84       8.54        18.5        
H           70.4        10.8        19.26       
H           70.52       8.58        20.71       
C           69.83       9.89        19.09       
C           68.73       9.97        18.36       
C           67.29       2.32        23.18       
C           67.6        2.56        21.83       
C           67.4        3.45        24.05       
C           68.01       3.91        21.38       
C           68.03       5.03        22.28       
C           68.27       4.19        20.06       
C           67.62       4.75        23.59       
C           67.62       5.83        24.6        
N           67.87       7.16        24.06       
C           68.25       7.46        22.75       
C           68.2        3.12        19.01       
N           67.8        1.82        19.42       
C           67.56       1.47        20.78       
O           68.34       3.42        17.82       
O           67.36       0.28        20.97       
O           67.42       5.57        25.74       
O           68.41       8.64        22.53       
C           67.62       8.27        25.0        
C           67.9        0.72        18.47       
H           67.4        9.21        24.49       
H           66.73       7.94        25.63       
H           68.50051    8.436       25.62069    
H           68.32       -0.16       18.96       
H           68.72       0.91        17.69       
H           66.99385    0.39892     17.95628    
H           67.02       3.38        25.04       
H           68.88       5.53        18.6        
C           68.53       5.44        19.63       
C           68.32       6.34        21.79       
C           68.61       6.58        20.44       
C           65.01       -0.45       24.79       
C           65.96       -0.04       25.72       
S           65.27       0.41        23.29       
H           67.68       1.41        25.75       
H           66.14       -0.54       26.65       
C           66.89       0.94        25.17       
C           66.65       1.25        23.91       
C           62.35       -3.2        25.47       
C           62.98       -3.46       24.3        
S           63.21       -1.93       26.33       
H           64.33       -2.39       22.91       
H           62.6        -4.18       23.67       
C           63.88       -2.46       23.91       
C           64.14       -1.58       24.91       
C           59.15       -5.15       26.71       
C           59.71       -4.51       27.76       
S           60.02       -4.84       25.34       
H           61.55       -3.35       28.24       
H           59.29       -4.65       28.75       
C           60.89       -3.81       27.4        
C           61.28       -3.93       26.1        
C           53.96       -8.84       28.65       
C           55.2        -9.14       28.04       
C           53.69       -7.48       28.79       
C           56.09       -8.04       27.63       
C           55.81       -6.69       27.91       
C           57.37       -8.33       27.14       
C           54.55       -6.45       28.43       
C           53.97       -5.14       28.64       
N           54.85       -4.07       28.37       
C           56.15       -4.36       27.82       
C           57.84       -9.74       26.95       
N           56.94       -10.75      27.26       
C           55.61       -10.55      27.76       
O           59.09       -9.92       26.88       
O           55.05       -11.57      28.08       
O           52.93       -4.94       29.22       
O           56.97       -3.42       27.74       
C           54.21       -2.89       27.76       
C           57.3        -12.15      26.98       
H           53.46       -3.19       27.04       
H           55.0        -2.26       27.25       
H           53.73156    -2.22754    28.48135    
H           57.02       -12.71      27.82       
H           58.41       -12.18      27.02       
H           57.07878    -12.57817   26.00234    
H           52.77       -7.22       29.2        
H           59.28       -7.53       26.39       
C           58.29       -7.31       26.78       
C           56.71       -5.69       27.52       
C           57.88       -5.93       26.85       
C           50.52       -10.75      29.39       
C           51.56       -11.3       30.1        
S           51.13       -9.44       28.45       
H           53.74       -10.93      30.48       
H           51.44       -12.15      30.79       
C           52.86       -10.64      29.95       
C           52.8        -9.66       29.05       
C           46.65       -11.01      28.56       
C           46.92       -11.9       29.56       
S           48.16       -10.36      28.07       
H           48.69       -12.63      30.78       
H           46.18       -12.57      30.01       
C           48.29       -11.96      29.98       
C           49.08       -11.11      29.31       
C           43.81       -11.33      25.83       
C           43.24       -11.1       27.11       
S           45.51       -11.34      26.11       
H           43.82       -11.07      29.18       
H           42.18       -11.22      27.31       
C           44.15       -11.06      28.17       
C           45.44       -10.89      27.78       
C           40.72       -12.51      20.01       
C           41.8        -13.08      20.75       
C           40.23       -11.37      20.59       
C           42.22       -12.57      22.03       
C           41.51       -11.48      22.65       
C           43.35       -13.06      22.69       
C           40.52       -10.9       21.85       
C           39.71       -9.78       22.27       
N           40.04       -9.33       23.59       
C           41.06       -9.84       24.4        
C           44.12       -14.27      22.21       
N           43.71       -14.78      20.99       
C           42.65       -14.25      20.23       
O           45.03       -14.75      22.85       
O           42.61       -14.77      19.12       
O           38.99       -9.18       21.53       
O           41.42       -9.27       25.43       
C           38.96       -8.62       24.24       
C           44.78       -15.53      20.26       
H           38.88       -8.89       25.3        
H           38.0        -9.0        23.85       
H           39.067      -7.55002    24.06167    
H           44.4        -16.19      19.48       
H           45.23       -16.12      21.03       
H           45.51555    -14.84543   19.8376     
H           39.44       -10.98      19.95       
H           44.61       -13.02      24.48       
C           43.74       -12.58      23.94       
C           41.93       -11.0       23.93       
C           43.03       -11.59      24.58       
C           40.49       -12.94      16.14       
C           39.22       -13.03      16.66       
S           41.6        -12.71      17.44       
H           38.32       -13.11      18.63       
H           38.35       -13.32      16.1        
C           39.17       -12.89      18.06       
C           40.38       -12.7       18.61       
C           42.56       -13.53      12.87       
C           41.53       -12.79      12.51       
S           42.49       -13.92      14.56       
H           39.74       -11.94      13.57       
H           41.26       -12.53      11.48       
C           40.62       -12.5       13.63       
C           41.06       -12.99      14.81       
C           45.82       -15.13      11.51       
C           45.37       -14.3       10.54       
S           44.78       -15.1       12.87       
H           43.67       -12.88      10.36       
H           45.89       -14.06      9.57        
C           44.16       -13.57      10.95       
C           43.73       -13.92      12.16       
C           50.68       -19.35      11.32       
C           49.73       -19.07      10.4        
C           50.86       -18.51      12.4        
C           48.83       -17.97      10.6        
C           49.0        -17.17      11.76       
C           47.77       -17.64      9.76        
C           50.06       -17.43      12.68       
C           50.4        -16.6       13.86       
N           49.64       -15.48      14.09       
C           48.46       -15.23      13.27       
C           47.5        -18.38      8.55        
N           48.44       -19.37      8.27        
C           49.56       -19.73      9.06        
O           46.58       -18.14      7.89        
O           50.31       -20.62      8.68        
O           51.33       -17.06      14.53       
O           47.79       -14.26      13.44       
C           49.49       -14.85      15.46       
C           48.33       -20.16      7.03        
H           48.64       -15.31      15.99       
H           49.19       -13.83      15.25       
H           50.37197    -14.74583   16.09196    
H           49.32       -20.28      6.57        
H           47.67       -19.59      6.34        
H           47.87983    -21.14748   7.13165     
H           51.7        -18.67      13.07       
H           45.9        -16.64      9.72        
C           46.82       -16.8       10.24       
C           48.16       -16.09      12.08       
C           47.03       -15.91      11.29       
C           53.79       -21.64      10.7        
C           53.05       -22.22      11.73       
S           53.22       -20.07      10.28       
H           51.09       -21.76      12.74       
H           53.46       -23.13      12.29       
C           51.92       -21.45      12.07       
C           51.8        -20.32      11.3        
C           57.04       -22.5       8.83        
C           56.52       -23.67      9.35        
S           56.04       -21.16      9.22        
H           54.88       -24.38      10.62       
H           57.02       -24.61      9.38        
C           55.4        -23.48      10.15       
C           54.95       -22.22      10.09       
C           60.36       -23.11      6.75        
C           60.05       -21.76      6.7         
S           59.07       -23.9       7.62        
H           58.59       -20.35      7.57        
H           60.76       -21.07      6.2         
C           58.92       -21.36      7.46        
C           58.23       -22.41      7.98        
C           65.0        -26.12      3.14        
C           64.02       -25.17      2.81        
C           65.02       -26.53      4.53        
C           63.27       -24.61      3.89        
C           63.31       -25.08      5.26        
C           62.15       -23.68      3.68        
C           64.24       -26.05      5.53        
C           64.37       -26.67      6.87        
N           63.46       -26.24      7.84        
C           62.49       -25.29      7.63        
C           61.9        -23.16      2.33        
N           62.61       -23.74      1.28        
C           63.69       -24.71      1.44        
O           61.04       -22.38      2.08        
O           64.22       -25.12      0.43        
O           65.2        -27.61      7.09        
O           61.82       -24.99      8.56        
C           62.92       -27.36      8.61        
C           61.94       -23.71      0.01        
H           63.02       -28.29      8.07        
H           61.82       -27.24      8.76        
H           63.3205     -27.42324   9.62178     
H           62.66       -24.0       -0.74       
H           61.61       -22.74      -0.17       
H           61.09808    -24.40009   -0.04521    
H           65.82       -27.25      4.82        
H           60.5        -22.69      4.42        
C           61.37       -23.28      4.69        
C           62.43       -24.65      6.29        
C           61.5        -23.71      6.03        
C           67.32       -28.06      0.66        
C           66.66       -28.96      1.44        
S           66.97       -26.46      1.15        
H           65.49       -28.79      3.39        
H           66.75       -30.05      1.39        
C           65.92       -28.3       2.56        
C           65.77       -27.01      2.25        
C           70.1        -28.02      -2.12       
C           69.4        -29.15      -2.23       
S           69.6        -27.28      -0.59       
H           67.59       -30.13      -1.33       
H           69.74       -29.96      -2.82       
C           68.2        -29.27      -1.41       
C           68.24       -28.31      -0.43       
C           73.57       -28.12      -3.72       
C           73.42       -26.82      -3.23       
S           72.18       -29.11      -3.45       
H           71.78       -25.69      -2.17       
H           74.17       -26.07      -3.17       
C           72.16       -26.58      -2.65       
C           71.43       -27.73      -2.69       
C           79.19       -29.78      -6.85       
C           77.78       -29.88      -7.14       
C           79.57       -29.07      -5.65       
C           76.83       -29.39      -6.22       
C           77.18       -28.7       -5.03       
C           75.45       -29.65      -6.46       
C           78.59       -28.65      -4.79       
C           79.12       -28.02      -3.59       
N           78.1        -27.75      -2.6        
C           76.73       -27.82      -2.81       
C           74.88       -30.48      -7.57       
N           75.9        -30.99      -8.41       
C           77.28       -30.77      -8.23       
O           73.7        -30.72      -7.69       
O           77.99       -31.53      -8.86       
O           80.35       -27.96      -3.32       
O           75.97       -27.69      -1.84       
C           78.55       -27.74      -1.22       
C           75.64       -32.17      -9.31       
H           79.21       -28.62      -0.93       
H           77.69       -27.78      -0.57       
H           79.07689    -26.81267   -0.99519    
H           76.21       -32.09      -10.16      
H           74.6        -32.12      -9.57       
H           75.67588    -33.11719   -8.77182    
H           80.61       -28.94      -5.32       
H           73.54       -29.34      -5.78       
C           74.58       -29.2       -5.52       
C           76.23       -28.3       -4.11       
C           74.86       -28.54      -4.37       
C           82.54       -30.47      -8.87       
C           81.57       -30.25      -9.78       
S           81.93       -30.24      -7.28       
H           79.36       -29.9       -9.66       
H           81.75       -30.32      -10.88      
C           80.28       -30.02      -9.18       
C           80.29       -29.9       -7.83       
C           86.42       -31.34      -8.99       
C           85.88       -31.3       -10.25      
S           85.14       -30.95      -7.85       
H           83.88       -30.74      -11.3       
H           86.51       -31.67      -11.13      
C           84.51       -30.87      -10.41      
C           83.99       -30.66      -9.15       
C           89.65       -32.11      -6.89       
C           89.96       -32.36      -8.18       
S           88.0        -31.5       -6.76       
H           89.05       -32.03      -10.13      
H           90.97       -32.61      -8.5        
C           88.86       -32.03      -9.07       
C           87.71       -31.7       -8.44       
C           94.12       -33.41      -2.16       
C           93.78       -34.04      -3.38       
C           93.41       -32.23      -1.87       
C           92.76       -33.54      -4.18       
C           92.04       -32.34      -3.89       
C           92.31       -34.15      -5.38       
C           92.52       -31.65      -2.79       
C           91.98       -30.35      -2.28       
N           91.03       -29.82      -3.15       
C           90.55       -30.42      -4.33       
C           92.94       -35.3       -5.93       
N           93.95       -35.87      -5.08       
C           94.36       -35.32      -3.82       
O           92.6        -35.83      -7.06       
O           95.33       -35.85      -3.37       
O           92.33       -29.85      -1.17       
O           89.75       -29.79      -5.03       
C           90.4        -28.54      -2.73       
C           94.72       -36.9       -5.76       
H           89.84       -28.8       -1.84       
H           89.62       -28.16      -3.34       
H           91.05292    -27.68127   -2.57387    
H           95.79       -36.9       -5.45       
H           94.61       -36.74      -6.84       
H           94.38462    -37.90615   -5.50846    
H           93.54       -31.76      -0.96       
H           90.88       -34.27      -6.99       
C           91.25       -33.67      -6.14       
C           91.07       -31.76      -4.73       
C           90.61       -32.46      -5.89       
C           96.38       -34.56      0.95        
C           97.11       -33.92      0.05        
S           94.71       -34.43      0.5         
H           96.93       -33.15      -2.03       
H           98.18       -33.71      0.19        
C           96.45       -33.66      -1.18       
C           95.1        -33.79      -1.09       
C           97.75       -34.65      4.61        
C           97.21       -35.85      4.39        
S           97.77       -33.66      3.17        
H           96.01       -36.82      2.96        
H           97.13       -36.54      5.24        
C           96.45       -35.88      3.22        
C           96.73       -34.83      2.38        
C           98.41       -32.49      7.7         
C           98.78       -33.75      8.11        
S           98.09       -32.33      5.99        
H           98.73       -35.73      7.08        
H           99.11       -34.01      9.1         
C           98.6        -34.69      6.99        
C           98.19       -34.06      5.82        
C           99.07       -26.57      10.53       
C           99.95       -27.68      10.51       
C           97.78       -26.78      10.03       
C           99.41       -28.9       9.98        
C           98.1        -29.03      9.39        
C           100.19      -30.0       9.85        
C           97.28       -27.92      9.45        
C           95.95       -27.79      8.78        
N           95.49       -29.03      8.29        
C           96.26       -30.16      8.19        
C           101.6       -30.08      10.32       
N           102.08      -28.82      10.87       
C           101.36      -27.68      10.97       
O           102.38      -31.03      10.22       
O           101.95      -26.8       11.43       
O           95.4        -26.72      8.54        
O           95.74       -31.14      7.73        
C           94.35       -28.92      7.38        
C           103.17      -28.84      11.87       
H           94.33       -29.61      6.62        
H           94.58       -28.06      6.81        
H           93.39728    -28.84615   7.90437     
H           103.81      -27.97      11.85       
H           103.8       -29.65      11.52       
H           102.84745   -29.12047   12.8727     
H           97.05       -25.96      10.11       
H           100.54      -31.91      9.12        
C           99.74       -31.16      9.31        
C           97.66       -30.2       8.69        
C           98.53       -31.26      8.6         
C           99.78       -23.35      12.55       
C           99.21       -22.86      11.42       
S           99.8        -25.1       12.7        
H           98.75       -23.75      9.47        
H           99.21       -21.83      11.1        
C           98.98       -23.92      10.53       
C           99.19       -25.2       11.11       
C           101.54      -20.72      14.99       
C           101.7       -21.99      15.52       
S           100.53      -20.87      13.58       
H           101.09      -24.13      15.02       
H           102.35      -22.13      16.31       
C           101.07      -23.04      14.76       
C           100.41      -22.6       13.65       
C           104.05      -17.97      16.25       
C           102.88      -17.36      15.86       
S           103.86      -19.67      16.1        
H           100.94      -17.91      14.97       
H           102.82      -16.26      15.86       
C           101.87      -18.23      15.38       
C           102.23      -19.54      15.46       
C           108.77      -14.29      19.21       
C           108.3       -15.6       19.47       
C           108.39      -13.74      17.97       
C           107.35      -16.14      18.55       
C           106.92      -15.58      17.37       
C           106.73      -17.46      18.81       
C           107.55      -14.37      17.01       
C           107.4       -13.71      15.72       
N           106.47      -14.32      14.88       
C           105.74      -15.45      15.21       
C           107.16      -18.28      19.93       
N           108.18      -17.81      20.72       
C           108.81      -16.5       20.59       
O           106.66      -19.41      20.05       
O           109.78      -16.29      21.3        
O           107.82      -12.59      15.48       
O           104.89      -15.75      14.42       
C           106.13      -13.57      13.59       
C           108.59      -18.71      21.88       
H           105.93      -12.53      13.91       
H           105.33      -14.08      13.1        
H           106.93723   -13.65727   12.86277    
H           109.64      -18.6       22.11       
H           108.25      -19.71      21.66       
H           107.96945   -18.49602   22.75019    
H           108.86      -12.8       17.67       
H           105.21      -18.86      18.4        
C           105.65      -17.92      18.1        
C           105.91      -16.16      16.52       
C           105.18      -17.3       16.88       
C           110.67      -11.51      21.27       
C           111.52      -12.59      21.05       
S           109.2       -11.77      20.35       
H           111.31      -14.63      20.33       
H           112.46      -12.68      21.58       
C           110.86      -13.65      20.42       
C           109.62      -13.38      19.98       
C           110.81      -8.14       23.13       
C           111.99      -8.35       22.54       
S           109.75      -9.49       22.85       
H           113.0       -10.03      21.5        
H           112.82      -7.64       22.58       
C           112.12      -9.6        21.89       
C           110.92      -10.27      21.83       
C           108.74      -5.17       24.52       
C           110.05      -4.96       24.82       
S           108.59      -6.67       23.69       
H           112.01      -6.02       24.68       
H           110.33      -4.08       25.36       
C           110.96      -6.0        24.42       
C           110.3       -6.97       23.76       
C           104.47      -0.29       25.45       
C           104.69      -1.12       24.37       
C           105.23      -0.48       26.64       
C           105.64      -2.18       24.5        
C           106.49      -2.35       25.67       
C           105.95      -2.98       23.42       
C           106.17      -1.52       26.77       
C           106.76      -1.62       28.09       
N           107.69      -2.66       28.26       
C           108.15      -3.45       27.18       
C           105.27      -2.91       22.13       
N           104.25      -1.94       22.06       
C           103.9       -1.03       23.06       
O           105.46      -3.71       21.23       
O           102.85      -0.45       22.95       
O           106.62      -0.72       28.97       
O           108.99      -4.3        27.48       
C           108.46      -2.7        29.51       
C           103.53      -1.86       20.83       
H           109.14      -1.89       29.61       
H           109.14      -3.57       29.53       
H           107.84271   -2.92969    30.37851    
H           102.51      -1.61       20.92       
H           103.53      -2.82       20.32       
H           103.99589   -1.1175     20.18213    
H           105.09      0.21        27.47       
H           107.16      -4.53       22.68       
C           106.86      -4.05       23.6        
C           107.51      -3.36       25.82       
C           107.7       -4.22       24.74       
C           102.15      2.76        26.09       
C           102.67      2.91        24.87       
S           102.67      1.36        26.88       
H           104.18      1.77        23.67       
H           102.41      3.73        24.21       
C           103.58      1.84        24.56       
C           103.72      0.97        25.55       
C           98.85       4.54        27.09       
C           99.4        4.02        28.2        
S           99.81       4.11        25.68       
H           101.1       2.71        28.72       
H           98.93       4.13        29.19       
C           100.57      3.21        27.94       
C           101.05      3.41        26.66       
H           68.23       10.94       18.15       
H           98.23       5.41        27.21       
