512

C           55.06       41.9        35.16       
C           54.27       41.54       36.2        
S           55.96       43.34       35.67       
H           53.86       42.25       38.3        
H           53.59       40.7        36.24       
C           54.36       42.34       37.34       
C           55.18       43.38       37.19       
C           56.17       38.34       29.62       
C           56.97       39.12       30.4        
C           54.81       38.11       30.06       
C           56.42       39.9        31.49       
C           55.07       39.73       31.93       
C           57.14       40.75       32.27       
C           54.32       38.7        31.19       
C           52.94       38.43       31.48       
N           52.35       39.22       32.51       
C           53.07       40.06       33.36       
C           58.55       40.91       32.02       
N           59.11       40.18       30.99       
C           58.38       39.32       30.09       
O           59.17       41.67       32.82       
O           58.96       38.87       29.09       
O           52.44       37.44       30.9        
O           52.36       40.48       34.23       
C           50.87       39.48       32.44       
C           60.41       40.56       30.51       
H           50.56       40.43       32.89       
H           50.67       39.64       31.38       
H           50.28172    38.66215    32.8561     
H           61.05       39.67       30.47       
H           60.84       41.14       31.3        
H           60.41715    41.26758    29.68092    
H           54.18       37.5        29.43       
H           57.32       41.77       34.14       
C           56.64       41.27       33.44       
C           54.5        40.34       33.12       
C           55.27       41.14       33.88       
C           56.87       35.9        26.58       
C           56.05       36.88       26.11       
S           57.12       36.12       28.32       
H           55.08       38.7        26.9        
H           55.65       36.93       25.11       
C           55.82       37.89       27.09       
C           56.39       37.67       28.33       
C           57.06       32.47       24.59       
C           58.32       32.73       25.11       
S           56.01       33.68       25.0        
H           59.2        34.26       26.44       
H           59.14       32.01       25.15       
C           58.33       33.94       25.88       
C           57.17       34.58       25.94       
C           55.14       30.0        22.34       
C           56.11       29.37       22.92       
S           55.19       31.69       22.88       
H           57.82       29.64       24.29       
H           56.19       28.29       22.76       
C           57.0        30.09       23.7        
C           56.62       31.38       23.76       
C           50.72       27.61       18.11       
C           51.06       27.16       19.42       
C           51.27       28.8        17.58       
C           52.05       27.94       20.11       
C           52.67       29.12       19.54       
C           52.5        27.57       21.43       
C           52.23       29.56       18.24       
C           52.86       30.74       17.56       
N           54.02       31.22       18.11       
C           54.45       30.84       19.39       
C           51.92       26.48       22.19       
N           50.81       25.88       21.55       
C           50.28       26.22       20.29       
O           52.36       26.07       23.27       
O           49.35       25.63       19.83       
O           52.5        31.26       16.47       
O           55.42       31.45       19.83       
C           55.1        31.55       17.24       
C           50.01       24.92       22.4        
H           55.05       31.02       16.34       
H           56.05       31.31       17.68       
H           55.02986    32.59509    16.9384     
H           49.05       25.32       22.38       
H           50.37       24.94       23.41       
H           49.98127    23.90732    21.9978     
H           51.11       29.13       16.55       
H           53.64       28.15       23.02       
C           53.48       28.3        22.01       
C           53.74       29.76       20.15       
C           54.2        29.35       21.38       
C           47.83       26.41       15.65       
C           48.64       25.39       16.02       
S           48.45       27.84       16.38       
H           50.31       24.99       17.38       
H           48.31       24.35       15.89       
C           49.7        25.7        16.85       
C           49.75       27.02       17.14       
C           45.92       25.94       12.22       
C           45.48       27.12       12.77       
S           46.83       25.08       13.41       
H           45.96       28.34       14.62       
H           45.08       27.9        12.19       
C           46.06       27.38       14.07       
C           46.88       26.4        14.56       
C           45.64       25.08       8.53        
C           46.47       24.21       9.11        
S           44.78       25.99       9.75        
H           47.24       23.68       11.1        
H           47.0        23.48       8.52        
C           46.54       24.25       10.5        
C           45.78       25.32       10.97       
C           43.84       25.59       2.18        
C           44.16       24.53       3.08        
C           43.86       26.81       2.77        
C           44.54       24.69       4.42        
C           44.59       25.95       5.01        
C           44.79       23.61       5.31        
C           44.18       27.0        4.13        
C           43.89       28.39       4.58        
N           44.22       28.63       5.85        
C           44.84       27.69       6.73        
C           44.76       22.25       4.82        
N           44.46       22.07       3.47        
C           44.08       23.09       2.61        
O           45.0        21.3        5.49        
O           43.56       22.65       1.54        
O           43.43       29.21       3.78        
O           45.06       28.12       7.9         
C           44.3        30.05       6.33        
C           44.77       20.74       2.9         
H           44.55       30.7        5.44        
H           45.1        30.24       7.05        
H           43.3381     30.40892    6.6961      
H           44.1        20.51       2.01        
H           44.42       20.03       3.58        
H           45.81138    20.53891    2.64863     
H           43.63       27.59       2.08        
H           45.35       23.06       7.26        
C           45.19       23.89       6.61        
C           44.92       26.24       6.32        
C           45.37       25.19       7.07        
C           44.06       25.82       -1.76       
C           43.01       26.51       -1.36       
S           44.93       25.23       -0.38       
H           41.94       26.92       0.55        
H           42.39       27.11       -2.08       
C           42.73       26.37       0.03        
C           43.68       25.68       0.7         
C           46.58       26.31       -4.67       
C           45.35       26.31       -5.25       
S           46.44       25.93       -2.98       
H           43.24       26.41       -4.55       
H           45.14       26.5        -6.34       
C           44.29       26.19       -4.32       
C           44.72       25.92       -3.05       
C           49.75       26.64       -7.0        
C           50.11       26.59       -5.67       
S           48.04       26.22       -7.04       
H           49.09       26.7        -3.62       
H           51.1        26.78       -5.38       
C           49.01       26.6        -4.71       
C           47.87       26.36       -5.34       
C           54.01       27.07       -12.21      
C           52.63       27.35       -12.07      
C           54.73       26.52       -11.15      
C           52.03       27.17       -10.78      
C           52.71       26.49       -9.68       
C           50.71       27.48       -10.53      
C           54.11       26.21       -9.94       
C           54.91       25.48       -9.0        
N           54.34       25.26       -7.72       
C           53.06       25.62       -7.41       
C           49.83       28.19       -11.52      
N           50.44       28.29       -12.82      
C           51.68       27.8        -13.2       
O           48.68       28.46       -11.25      
O           52.0        27.74       -14.41      
O           56.07       25.19       -9.27       
O           52.66       25.35       -6.31       
C           54.97       24.46       -6.6        
C           49.79       29.24       -13.68      
H           54.43       23.49       -6.56       
H           54.78       24.95       -5.64       
H           56.05945    24.42552    -6.6        
H           50.49       29.87       -14.23      
H           49.34       29.9        -12.92      
H           48.98937    28.94691    -14.35911   
H           55.8        26.4        -11.25      
H           49.14       27.45       -9.11       
C           50.13       27.11       -9.31       
C           52.11       26.27       -8.38       
C           50.77       26.55       -8.14       
C           56.87       26.95       -15.02      
C           55.95       27.9        -15.41      
S           56.32       26.23       -13.57      
H           54.24       28.83       -14.44      
H           56.11       28.55       -16.31      
C           54.95       28.05       -14.42      
C           55.03       27.33       -13.29      
C           60.31       25.31       -15.98      
C           59.64       25.66       -17.16      
S           59.28       25.64       -14.66      
H           57.87       26.7        -17.75      
H           60.07       25.77       -18.18      
C           58.37       26.28       -16.97      
C           58.04       26.35       -15.64      
C           63.79       24.81       -14.23      
C           64.0        25.1        -15.53      
S           62.09       24.62       -14.04      
H           62.88       25.4        -17.34      
H           65.0        25.31       -15.87      
C           62.8        25.24       -16.31      
C           61.71       24.97       -15.66      
C           68.26       23.35       -9.51       
C           68.05       22.97       -10.86      
C           67.38       24.35       -9.02       
C           66.93       23.45       -11.57      
C           66.05       24.46       -11.06      
C           66.65       23.01       -12.88      
C           66.36       24.89       -9.74       
C           65.69       26.05       -9.1        
N           64.56       26.54       -9.86       
C           64.26       26.09       -11.19      
C           67.47       21.98       -13.56      
N           68.61       21.6        -12.85      
C           68.95       22.05       -11.6       
O           67.2        21.45       -14.63      
O           70.11       21.97       -11.17      
O           66.05       26.55       -8.02       
O           63.53       26.85       -11.83      
C           64.09       27.9        -9.53       
C           69.6        20.69       -13.55      
H           63.39       28.36       -10.22      
H           64.93       28.52       -9.47       
H           63.58966    27.95409    -8.56313    
H           70.58       21.17       -13.46      
H           69.4        20.6        -14.59      
H           69.55639    19.67978    -13.143     
H           67.65       24.75       -8.04       
H           65.43       23.14       -14.52      
C           65.61       23.6        -13.6       
C           65.04       25.06       -11.88      
C           64.79       24.68       -13.22      
C           70.83       21.67       -6.98       
C           70.81       23.02       -6.74       
S           69.61       21.23       -8.1        
H           69.69       24.81       -7.63       
H           71.36       23.44       -5.92       
C           69.9        23.68       -7.6        
C           69.3        22.88       -8.52       
C           73.09       19.3        -4.79       
C           72.46       18.49       -5.69       
S           72.65       20.93       -5.03       
H           70.82       18.68       -7.15       
H           72.51       17.4        -5.65       
C           71.54       19.23       -6.49       
C           71.52       20.56       -6.29       
C           76.07       17.99       -2.6        
C           75.81       19.28       -2.21       
S           74.85       17.48       -3.72       
H           74.27       20.83       -2.74       
H           76.45       19.75       -1.47       
C           74.66       19.82       -2.9        
C           74.14       19.01       -3.89       
C           80.55       13.97       0.02        
C           80.44       14.6        -1.21       
C           79.67       14.37       1.05        
C           79.36       15.52       -1.39       
C           78.36       15.84       -0.39       
C           79.18       16.09       -2.68       
C           78.63       15.3        0.89        
C           77.74       15.71       2.08        
N           76.49       16.45       1.75        
C           76.25       16.98       0.41        
C           80.03       15.7        -3.85       
N           81.08       14.82       -3.55       
C           81.45       14.38       -2.23       
O           79.73       16.02       -4.97       
O           82.45       13.68       -2.08       
O           78.05       15.33       3.24        
O           75.27       17.65       0.21        
C           75.4        16.41       2.75        
C           81.67       14.05       -4.65       
H           74.93       15.46       2.72        
H           74.6        17.1        2.51        
H           75.73539    16.79643    3.71243     
H           82.71       14.06       -4.42       
H           81.39       14.61       -5.57       
H           81.3481     13.00898    -4.6774     
H           79.8        13.96       2.06        
H           77.91       17.36       -3.95       
C           78.07       16.88       -2.94       
C           77.28       16.72       -0.71       
C           77.1        17.2        -1.99       
C           83.86       12.29       1.47        
C           83.14       11.36       0.79        
S           82.99       13.8        1.34        
H           81.37       11.34       -0.42       
H           83.61       10.42       0.59        
C           81.91       11.87       0.33        
C           81.6        13.15       0.61        
C           87.49       12.94       2.88        
C           87.51       11.74       2.21        
S           85.93       13.67       2.65        
H           86.15       10.35       1.13        
H           88.41       11.12       2.16        
C           86.29       11.33       1.62        
C           85.29       12.25       1.82        
C           90.11       15.18       4.59        
C           90.45       13.86       4.74        
S           88.68       15.28       3.64        
H           89.73       11.84       4.38        
H           91.28       13.56       5.44        
C           89.57       12.91       4.15        
C           88.55       13.57       3.53        
C           93.86       19.88       7.31        
C           93.03       18.94       7.87        
C           93.78       20.15       5.93        
C           92.28       18.12       6.97        
C           92.29       18.23       5.54        
C           91.45       17.08       7.44        
C           93.05       19.3        5.06        
C           93.21       19.63       3.61        
N           92.35       18.82       2.82        
C           91.67       17.7        3.27        
C           91.43       16.71       8.88        
N           92.21       17.49       9.7         
C           92.97       18.64       9.36        
O           90.81       15.66       9.24        
O           93.7        19.2        10.19       
O           94.01       20.56       3.26        
O           91.17       16.9        2.43        
C           91.98       19.4        1.54        
C           92.11       17.28       11.16       
H           91.56       20.39       1.74        
H           91.31       18.73       1.05        
H           92.82921    19.48563    0.86206     
H           93.14       17.5        11.57       
H           91.89       16.28       11.46       
H           91.28905    17.87771    11.55607    
H           94.47       20.93       5.51        
H           90.41       15.28       6.97        
C           90.87       16.15       6.58        
C           91.54       17.38       4.7         
C           90.88       16.29       5.2         
C           96.04       22.5        9.34        
C           96.8        21.9        8.4         
S           94.37       22.11       9.08        
H           96.53       20.17       6.99        
H           97.82       22.16       8.19        
C           96.1        20.82       7.75        
C           94.81       20.85       7.99        
C           97.79       24.15       12.36       
C           96.43       24.44       12.37       
S           98.11       23.33       10.88       
H           94.61       24.21       11.09       
H           95.96       25.03       13.16       
C           95.73       24.15       11.18       
C           96.48       23.44       10.35       
C           100.82      24.81       14.82       
C           99.63       24.66       15.56       
S           100.48      24.51       13.06       
H           97.44       24.44       15.15       
H           99.56       24.73       16.66       
C           98.49       24.41       14.79       
C           98.77       24.3        13.43       
C           106.46      26.33       17.9        
C           105.93      26.71       16.72       
C           105.78      25.45       18.72       
C           104.65      26.15       16.31       
C           103.86      25.28       17.15       
C           104.09      26.54       15.1        
C           104.55      24.98       18.37       
C           103.95      24.05       19.41       
N           102.72      23.57       18.99       
C           102.11      23.69       17.69       
C           104.67      27.57       14.18       
N           105.84      28.21       14.67       
C           106.43      27.85       15.88       
O           104.06      28.05       13.16       
O           107.31      28.64       16.18       
O           104.53      23.73       20.39       
O           101.05      23.06       17.46       
C           102.05      22.61       19.89       
C           106.47      29.21       13.81       
H           102.75      21.9        20.32       
H           101.36      21.88       19.38       
H           101.49733   23.07765    20.70484    
H           106.7       30.17       14.31       
H           105.74      29.51       13.09       
H           107.27196   28.7558     13.22805    
H           106.25      25.18       19.7        
H           102.4       26.39       13.88       
C           102.85      25.99       14.79       
C           102.63      24.73       16.78       
C           102.08      25.07       15.53       
C           109.94      27.6        19.43       
C           110.09      27.27       18.1        
S           108.29      27.27       19.91       
H           108.92      26.38       16.49       
H           111.02      27.43       17.5        
C           108.95      26.74       17.5        
C           107.84      26.72       18.33       
C           111.88      29.32       22.44       
C           112.7       29.3        21.31       
S           110.33      28.62       21.97       
H           112.61      28.63       19.17       
H           113.7       29.77       21.42       
C           112.11      28.7        20.11       
C           110.85      28.31       20.3        
C           111.85      30.19       26.28       
C           113.14      30.44       25.76       
S           110.99      29.34       25.05       
H           114.13      30.18       23.7        
H           113.86      30.86       26.4        
C           113.28      30.09       24.34       
C           112.14      29.64       23.79       
C           110.07      30.93       32.69       
C           109.49      31.25       31.48       
C           111.27      30.21       32.54       
C           110.1       30.88       30.2        
C           111.35      30.17       30.13       
C           109.58      31.25       28.92       
C           111.9       29.85       31.37       
C           113.15      29.08       31.53       
N           113.73      28.74       30.34       
C           113.3       29.22       29.07       
C           108.34      31.94       28.85       
N           107.76      32.31       30.11       
C           108.23      32.0        31.43       
O           107.79      32.23       27.79       
O           107.56      32.37       32.35       
O           113.53      28.74       32.64       
O           113.93      28.75       28.13       
C           115.15      28.32       30.46       
C           106.31      32.84       30.12       
H           115.6       28.95       31.22       
H           115.64      28.52       29.54       
H           115.15711   27.26778    30.74438    
H           105.78      32.26       30.92       
H           105.88      32.52       29.18       
H           106.26657   33.92567    30.20685    
H           111.7       29.83       33.4        
H           109.76      31.23       26.87       
C           110.21      30.92       27.81       
C           112.03      29.97       28.92       
C           111.43      30.28       27.71       
C           109.58      32.04       36.41       
C           108.43      31.29       36.08       
S           110.69      32.09       35.13       
H           107.78      30.18       34.22       
H           107.53      31.27       36.64       
C           108.51      30.8        34.68       
C           109.64      31.2        34.03       
C           109.88      34.05       39.72       
C           111.0       34.2        39.0        
S           108.72      32.95       38.93       
H           111.91      33.31       37.24       
H           111.83      34.81       39.32       
C           111.04      33.46       37.85       
C           109.89      32.74       37.62       
C           108.94      36.66       42.53       
C           108.31      35.48       42.75       
S           110.05      36.29       41.26       
H           108.08      33.39       41.95       
H           107.47      35.41       43.47       
C           108.53      34.4        41.86       
C           109.47      34.69       40.94       
C           109.2       42.41       45.79       
C           109.28      41.09       46.15       
C           108.81      42.65       44.49       
C           109.13      40.02       45.21       
C           108.76      40.27       43.85       
C           109.32      38.7        45.7        
C           108.64      41.62       43.54       
C           108.37      42.11       42.19       
N           108.29      41.05       41.24       
C           108.31      39.68       41.56       
C           109.55      38.24       47.08       
N           109.67      39.34       47.96       
C           109.59      40.72       47.59       
O           109.71      37.05       47.4        
O           109.88      41.48       48.44       
O           108.38      43.26       41.85       
O           108.02      38.9        40.64       
C           107.82      41.48       39.93       
C           109.77      38.95       49.37       
H           107.07      42.25       40.06       
H           107.27      40.68       39.49       
H           108.6806    41.82007    39.35396    
H           110.41      39.57       49.94       
H           110.28      37.96       49.42       
H           108.82022   38.80499    49.88477    
H           108.8       43.66       44.07       
H           109.29      36.67       45.13       
C           109.16      37.66       44.78       
C           108.59      39.23       42.95       
C           108.84      37.88       43.4        
C           110.19      45.6        47.89       
C           110.89      45.65       46.72       
S           108.94      44.33       47.9        
H           111.07      44.29       45.02       
H           111.56      46.52       46.44       
C           110.6       44.48       45.93       
C           109.61      43.66       46.43       
C           110.41      48.71       50.28       
C           109.65      47.73       50.89       
S           110.86      48.17       48.73       
H           109.11      45.6        50.5        
H           109.17      47.84       51.86       
C           109.58      46.52       50.12       
C           110.29      46.54       48.97       
H           55.09       44.38       37.68       
H           110.25      49.74       50.45       
