512

C           70.46       41.0        33.72       
C           70.65       40.42       34.96       
S           71.31       42.48       33.82       
H           71.81       40.76       36.83       
H           70.12       39.49       35.17       
C           71.55       41.09       35.86       
C           71.89       42.31       35.44       
C           67.55       37.46       29.05       
C           68.8        38.02       29.11       
C           66.74       37.62       30.15       
C           69.21       38.72       30.24       
C           68.32       38.93       31.35       
C           70.48       39.39       30.35       
C           67.05       38.4        31.21       
C           66.0        38.38       32.3        
N           66.4        39.09       33.46       
C           67.63       39.76       33.57       
C           71.52       39.31       29.27       
N           71.1        38.56       28.18       
C           69.79       37.99       28.05       
O           72.6        39.89       29.38       
O           69.68       37.27       27.05       
O           64.93       37.72       32.21       
O           67.74       40.49       34.6        
C           65.37       39.48       34.41       
C           71.99       38.52       27.0        
H           65.51       40.43       34.84       
H           64.59       39.77       33.74       
H           65.21673    38.69969    35.15547    
H           72.14       37.46       26.68       
H           72.94       38.7        27.37       
H           71.61143    39.12992    26.17977    
H           65.87       37.04       30.15       
H           71.79       40.52       31.64       
C           70.73       40.12       31.48       
C           68.61       39.67       32.46       
C           69.86       40.31       32.58       
C           65.57       36.25       25.91       
C           65.52       35.23       26.83       
S           66.55       37.54       26.49       
H           66.06       34.85       28.92       
H           64.98       34.28       26.59       
C           66.16       35.53       28.04       
C           66.81       36.75       28.04       
C           63.44       35.97       22.73       
C           64.61       36.55       22.39       
S           63.39       35.53       24.39       
H           66.39       37.3        23.41       
H           64.76       36.89       21.37       
C           65.47       36.72       23.49       
C           64.93       36.21       24.63       
C           60.04       35.13       21.08       
C           60.92       35.13       20.06       
S           60.76       35.37       22.59       
H           63.19       35.46       19.93       
H           60.69       34.98       19.05       
C           62.28       35.4        20.56       
C           62.3        35.72       21.92       
C           53.78       33.1        20.68       
C           55.06       32.49       20.46       
C           53.79       34.38       21.18       
C           56.25       33.23       20.61       
C           56.22       34.48       21.24       
C           57.46       32.69       20.21       
C           54.97       35.03       21.49       
C           54.82       36.42       21.96       
N           55.98       37.16       22.22       
C           57.29       36.63       22.01       
C           57.64       31.26       19.82       
N           56.49       30.45       19.76       
C           55.17       31.07       19.9        
O           58.76       30.78       19.73       
O           54.23       30.43       19.68       
O           53.69       36.9        22.11       
O           58.28       37.32       22.17       
C           55.83       38.62       22.35       
C           56.63       29.14       19.07       
H           55.23       38.94       21.54       
H           56.78       39.09       22.39       
H           55.35232    38.91504    23.28428    
H           55.84       28.45       19.46       
H           57.5        28.63       19.42       
H           56.52094    29.19089    17.98666    
H           52.86       34.94       21.29       
H           59.61       32.87       20.15       
C           58.64       33.37       20.43       
C           57.43       35.24       21.43       
C           58.65       34.68       20.96       
C           50.22       32.34       19.26       
C           50.03       32.65       20.62       
S           51.9        32.32       18.75       
H           51.45       33.09       22.23       
H           49.17       32.63       21.18       
C           51.34       32.82       21.19       
C           52.49       32.68       20.39       
C           47.93       32.0        16.1        
C           47.24       32.76       17.02       
S           49.48       31.52       16.77       
H           47.39       33.42       19.15       
H           46.26       33.22       16.92       
C           47.92       32.92       18.27       
C           49.13       32.3        18.3        
C           46.5        31.12       12.55       
C           47.79       30.73       12.6        
S           46.02       31.82       14.02       
H           49.5        30.94       13.91       
H           48.32       30.17       11.86       
C           48.45       31.04       13.83       
C           47.63       31.61       14.76       
C           43.03       28.02       8.02        
C           42.76       28.22       9.38        
C           44.12       28.65       7.33        
C           43.71       29.04       10.14       
C           44.84       29.69       9.48        
C           43.69       29.2        11.5        
C           44.94       29.46       8.04        
C           46.02       30.12       7.31        
N           46.91       30.97       7.94        
C           46.86       31.11       9.37        
C           42.7        28.45       12.34       
N           41.8        27.69       11.59       
C           41.69       27.65       10.2        
O           42.82       28.52       13.54       
O           40.68       27.16       9.64        
O           46.0        29.99       6.1         
O           47.57       31.96       9.86        
C           48.09       31.5        7.28        
C           40.67       27.13       12.35       
H           48.68       30.7        6.91        
H           48.72       32.13       7.94        
H           47.8221     32.1938     6.48315     
H           39.73       27.55       11.86       
H           40.69       27.64       13.26       
H           40.66297    26.04023    12.37109    
H           44.34       28.52       6.3         
H           44.65       29.88       13.2        
C           44.69       29.88       12.11       
C           45.79       30.48       10.18       
C           45.65       30.67       11.51       
C           42.2        25.13       5.29        
C           41.01       25.69       5.69        
S           43.52       25.86       6.17        
H           40.38       27.42       7.1         
H           40.07       25.45       5.12        
C           41.17       26.75       6.74        
C           42.55       26.93       7.09        
C           43.71       22.73       2.69        
C           42.41       22.38       2.79        
S           44.11       24.05       3.72        
H           40.64       22.95       4.09        
H           42.02       21.46       2.31        
C           41.68       23.13       3.77        
C           42.45       24.1        4.29        
C           46.49       20.51       0.95        
C           47.02       21.71       1.26        
S           44.82       20.44       1.43        
H           46.27       23.67       2.06        
H           47.95       22.16       0.89        
C           46.07       22.65       1.9         
C           44.86       22.12       2.06        
C           49.09       16.09       -3.4        
C           48.59       17.4        -3.46       
C           48.85       15.43       -2.16       
C           48.11       18.08       -2.36       
C           47.94       17.5        -1.07       
C           47.79       19.44       -2.37       
C           48.34       16.13       -1.08       
C           48.39       15.35       0.17        
N           47.98       16.09       1.34        
C           47.53       17.48       1.33        
C           48.07       20.24       -3.57       
N           48.55       19.55       -4.67       
C           48.77       18.17       -4.72       
O           47.72       21.41       -3.78       
O           49.13       17.72       -5.76       
O           48.57       14.11       0.13        
O           47.41       18.06       2.45        
C           47.99       15.32       2.65        
C           48.63       20.21       -6.0        
H           47.34       14.38       2.54        
H           47.43       15.93       3.42        
H           49.02553    15.06487    2.87512     
H           49.48       19.81       -6.55       
H           48.88       21.31       -6.03       
H           47.70609    20.13122    -6.57297    
H           49.14       14.42       -2.04       
H           47.14       21.17       -1.37       
C           47.3        20.1        -1.29       
C           47.53       18.24       0.03        
C           47.21       19.56       -0.04       
C           51.01       13.49       -5.82       
C           49.77       13.73       -6.37       
S           51.14       14.33       -4.23       
H           47.99       14.9        -5.94       
H           49.34       13.05       -7.13       
C           49.03       14.65       -5.6        
C           49.65       15.13       -4.41       
C           54.39       11.71       -6.35       
C           53.77       11.61       -7.52       
S           53.45       12.5        -5.12       
H           51.8        12.26       -8.34       
H           54.27       11.12       -8.37       
C           52.53       12.24       -7.5        
C           52.19       12.76       -6.28       
C           57.72       10.71       -4.78       
C           57.89       10.83       -6.09       
S           56.11       11.16       -4.37       
H           56.73       11.36       -7.96       
H           58.88       10.63       -6.5        
C           56.72       11.12       -6.89       
C           55.67       11.32       -6.07       
C           63.14       8.93        -1.57       
C           62.81       9.99        -2.35       
C           62.03       8.15        -1.11       
C           61.47       10.3        -2.68       
C           60.42       9.42        -2.31       
C           61.18       11.35       -3.58       
C           60.72       8.33        -1.48       
C           59.8        7.25        -1.09       
N           58.5        7.41        -1.73       
C           58.17       8.48        -2.59       
C           62.16       12.43       -3.95       
N           63.46       12.06       -3.65       
C           63.86       10.94       -2.92       
O           61.77       13.44       -4.45       
O           65.06       10.65       -2.81       
O           60.09       6.44        -0.27       
O           57.05       8.53        -2.98       
C           57.42       6.74        -0.98       
C           64.58       12.91       -4.12       
H           56.41       6.98        -1.33       
H           57.48       7.01        0.1         
H           57.49835    5.6574      -1.07971    
H           65.43       12.9        -3.45       
H           64.26       13.99       -4.08       
H           64.93226    12.58592    -5.09928    
H           62.3        7.28        -0.48       
H           59.68       12.42       -4.54       
C           59.88       11.51       -3.99       
C           59.18       9.49        -2.95       
C           58.88       10.5        -3.83       
C           66.48       8.03        0.43        
C           66.27       7.06        -0.49       
S           65.14       9.13        0.5         
H           64.86       6.79        -2.2        
H           66.95       6.24        -0.68       
C           65.13       7.34        -1.32       
C           64.37       8.43        -0.93       
C           69.08       8.89        3.24        
C           68.94       7.52        3.14        
S           68.14       9.72        2.07        
H           67.47       6.2         2.09        
H           69.44       6.9         3.9         
C           67.95       7.19        2.18        
C           67.4        8.2         1.54        
C           71.72       10.81       5.53        
C           70.89       11.67       4.94        
S           71.32       9.19        5.05        
H           69.05       11.64       3.73        
H           70.95       12.77       5.17        
C           69.82       11.05       4.3         
C           69.93       9.73        4.08        
C           76.57       13.53       9.02        
C           76.24       13.57       7.66        
C           75.75       12.8        9.91        
C           75.12       12.78       7.21        
C           74.24       12.18       8.13        
C           74.8        12.64       5.86        
C           74.57       12.21       9.53        
C           73.75       11.68       10.59       
N           72.54       10.98       10.12       
C           72.21       10.75       8.78        
C           75.58       13.35       4.79        
N           76.64       14.1        5.26        
C           77.02       14.25       6.61        
O           75.27       13.29       3.54        
O           77.92       15.03       6.77        
O           74.17       11.67       11.76       
O           71.25       9.98        8.57        
C           71.66       10.37       11.17       
C           77.37       14.91       4.21        
H           72.38       9.85        11.81       
H           70.91       9.71        10.82       
H           71.13914    11.12314    11.76125    
H           77.79       15.87       4.67        
H           76.66       15.31       3.48        
H           78.2071     14.35666    3.78435     
H           76.01       12.72       10.9        
H           73.57       11.91       4.45        
C           73.74       11.9        5.5         
C           73.1        11.36       7.72        
C           72.82       11.27       6.34        
C           80.2        14.27       10.33       
C           79.37       14.43       11.37       
S           79.42       13.68       8.95        
H           77.18       14.43       11.62       
H           79.64       14.73       12.36       
C           78.03       14.21       10.99       
C           77.87       13.83       9.69        
C           83.77       15.34       9.3         
C           83.87       14.9        10.6        
S           82.14       15.21       8.75        
H           82.51       14.26       12.22       
H           84.74       15.04       11.22       
C           82.61       14.46       11.17       
C           81.59       14.53       10.23       
C           87.0        16.87       7.78        
C           86.06       16.75       6.81        
S           86.28       16.33       9.28        
H           83.94       16.11       6.55        
H           86.24       16.84       5.74        
C           84.76       16.3        7.19        
C           84.77       15.97       8.5         
C           93.14       18.62       6.22        
C           92.52       17.48       6.65        
C           92.31       19.68       5.9         
C           91.11       17.39       6.72        
C           90.28       18.45       6.4         
C           90.54       16.18       7.13        
C           90.89       19.58       5.88        
C           90.1        20.71       5.47        
N           88.68       20.69       5.75        
C           88.13       19.59       6.35        
C           91.37       14.89       7.43        
N           92.79       15.16       7.46        
C           93.35       16.34       7.17        
O           90.92       13.85       7.88        
O           94.58       16.29       7.06        
O           90.59       21.58       4.84        
O           86.85       19.52       6.44        
C           87.72       21.51       5.0         
C           93.57       14.34       8.5         
H           86.67       21.19       5.0         
H           87.92       21.5        3.96        
H           87.74847    22.54927    5.32744     
H           94.65       14.12       8.32        
H           93.12       13.34       8.56        
H           93.51288    14.75409    9.50666     
H           92.72       20.66       5.72        
H           88.84       15.25       7.86        
C           89.24       16.16       7.45        
C           88.91       18.37       6.71        
C           88.4        17.25       7.4         
C           96.85       20.15       6.93        
C           96.82       19.78       5.58        
S           95.32       19.74       7.62        
H           95.39       18.75       4.19        
H           97.71       19.83       4.87        
C           95.53       19.2        5.21        
C           94.62       19.02       6.23        
C           99.12       21.59       9.77        
C           99.83       21.22       8.66        
S           97.45       21.11       9.43        
H           99.6        20.71       6.57        
H           100.92      21.36       8.67        
C           99.09       20.77       7.5         
C           97.77       20.78       7.78        
C           100.33      23.31       13.05       
C           100.79      22.0        12.98       
S           99.37       23.61       11.65       
H           100.72      20.23       11.77       
H           101.48      21.63       13.7        
C           100.41      21.28       11.84       
C           99.65       22.01       11.03       
C           101.89      27.35       18.17       
C           100.7       26.94       17.57       
C           103.06      26.94       17.48       
C           100.67      26.07       16.45       
C           101.84      25.59       15.82       
C           99.48       25.52       15.96       
C           103.04      26.09       16.32       
C           104.38      25.83       15.85       
N           104.41      24.9        14.79       
C           103.24      24.28       14.19       
C           98.2        25.82       16.5        
N           98.27       26.69       17.6        
C           99.39       27.31       18.15       
O           97.18       25.34       16.08       
O           99.19       27.99       19.11       
O           105.34      26.52       16.21       
O           103.43      23.61       13.18       
C           105.72      24.67       14.09       
C           97.0        26.88       18.37       
H           106.39      25.52       14.14       
H           105.57      24.42       13.02       
H           106.23844   23.78646    14.4624     
H           97.17       26.96       19.45       
H           96.41       25.98       18.26       
H           96.45252    27.78298    18.09982    
H           104.04      27.19       17.98       
H           98.52       24.26       14.55       
C           99.51       24.68       14.88       
C           101.86      24.63       14.72       
C           100.66      24.2        14.17       
C           103.23      28.33       21.78       
C           102.22      27.42       21.9        
S           103.33      28.81       20.15       
H           100.72      26.43       20.49       
H           101.98      26.97       22.89       
C           101.57      27.09       20.65       
C           102.14      27.71       19.55       
C           105.46      29.3        24.9        
C           106.02      29.73       23.74       
S           104.07      28.43       24.41       
H           105.66      29.92       21.61       
H           107.02      30.26       23.74       
C           105.27      29.55       22.54       
C           104.16      28.79       22.77       
C           107.33      29.73       28.33       
C           106.17      29.1        28.53       
S           107.5       30.0        26.63       
H           104.59      28.09       27.4        
H           105.86      28.77       29.49       
C           105.44      28.73       27.38       
C           105.94      29.34       26.26       
C           112.26      32.08       31.84       
C           110.92      32.54       31.61       
C           112.53      30.75       31.41       
C           110.01      31.63       30.93       
C           110.44      30.45       30.26       
C           108.64      31.94       30.83       
C           111.75      30.06       30.49       
C           112.34      28.9        29.84       
N           111.5       28.08       29.08       
C           110.09      28.37       28.97       
C           108.01      33.09       31.57       
N           108.94      33.97       32.15       
C           110.35      33.75       32.22       
O           106.78      33.22       31.66       
O           111.05      34.58       32.82       
O           113.51      28.59       30.05       
O           109.34      27.54       28.48       
C           111.82      26.67       29.08       
C           108.48      35.08       33.03       
H           111.02      26.04       29.02       
H           112.37      26.41       30.02       
H           112.40388   26.48523    28.17831    
H           109.01      35.02       34.01       
H           107.41      34.98       33.3        
H           108.52968   36.04525    32.52608    
H           113.54      30.35       31.57       
H           106.73      31.52       30.03       
C           107.79      31.22       30.03       
C           109.55      29.63       29.53       
C           108.29      30.12       29.34       
C           115.61      34.12       32.35       
C           114.94      34.02       33.59       
S           114.69      33.3        31.15       
H           112.98      33.28       34.31       
H           115.31      34.41       34.55       
C           113.68      33.32       33.53       
C           113.48      32.8        32.33       
C           118.43      36.25       30.83       
C           118.75      36.05       32.14       
S           116.99      35.44       30.37       
H           117.7       35.03       33.84       
H           119.5       36.54       32.71       
C           117.81      35.28       32.81       
C           116.84      34.84       31.98       
C           120.87      38.62       28.77       
C           119.77      38.4        28.02       
S           120.59      37.9        30.34       
H           117.91      37.32       28.04       
H           119.64      38.7        26.99       
C           118.74      37.68       28.65       
C           119.09      37.16       29.94       
C           125.3       43.37       27.38       
C           123.98      43.11       26.94       
C           125.8       42.56       28.39       
C           123.32      41.97       27.44       
C           123.86      41.09       28.4        
C           121.98      41.7        27.07       
C           125.08      41.53       28.92       
C           125.88      40.62       29.79       
N           125.23      39.42       30.29       
C           123.88      39.09       29.94       
C           121.15      42.65       26.18       
N           121.85      43.76       25.68       
C           123.27      43.98       25.91       
O           119.97      42.41       25.95       
O           123.72      44.94       25.38       
O           127.02      40.77       30.01       
O           123.48      38.01       30.39       
C           126.06      38.33       30.85       
C           121.06      44.97       25.42       
H           126.65      38.11       30.01       
H           125.57      37.41       31.1        
H           126.65297   38.66486    31.70109    
H           121.44      45.89       25.95       
H           120.06      44.92       25.78       
H           120.91877   45.14654    24.3537     
H           126.89      42.65       28.63       
H           120.36      40.52       27.24       
C           121.4       40.58       27.51       
C           123.18      39.93       28.94       
C           121.93      39.58       28.42       
C           128.0       46.15       26.51       
C           127.8       45.37       25.43       
S           126.96      45.68       27.81       
H           126.4       43.87       24.75       
H           128.32      45.43       24.49       
C           126.79      44.41       25.63       
C           126.3       44.35       26.91       
C           130.61      49.03       26.3        
C           130.0       49.08       27.46       
S           130.06      47.63       25.46       
H           128.42      48.06       28.63       
H           130.26      49.88       28.12       
C           129.0       48.09       27.72       
C           128.87      47.29       26.64       
H           72.04       43.23       36.07       
H           130.94      49.94       25.79       
