512

C           67.07       43.67       33.43       
C           67.05       43.57       32.09       
S           68.76       43.65       33.9        
H           68.38       43.94       30.4        
H           66.08       43.46       31.6        
C           68.31       43.78       31.47       
C           69.4        43.92       32.31       
C           62.3        41.8        37.61       
C           62.7        41.21       36.42       
C           62.77       43.02       37.98       
C           63.7        41.87       35.62       
C           64.28       43.13       36.04       
C           64.34       41.38       34.45       
C           63.74       43.65       37.27       
C           64.12       45.04       37.76       
N           65.2        45.65       37.12       
C           65.8        45.14       35.9        
C           63.8        40.12       33.84       
N           62.78       39.44       34.64       
C           62.22       39.88       35.88       
O           64.28       39.57       32.89       
O           61.43       39.12       36.45       
O           63.79       45.48       38.84       
O           66.78       45.76       35.47       
C           65.57       47.02       37.49       
C           62.05       38.32       33.99       
H           65.79       47.09       38.57       
H           66.44       47.38       37.02       
H           64.75942    47.71682    37.27669    
H           61.9        37.43       34.62       
H           62.69       37.97       33.23       
H           61.10783    38.66819    33.56671    
H           62.54       43.46       38.97       
H           65.68       41.52       32.93       
C           65.31       42.03       33.79       
C           65.31       43.84       35.34       
C           65.87       43.28       34.19       
C           59.13       40.68       39.74       
C           60.14       41.12       40.67       
S           59.73       40.75       38.08       
H           62.2        41.93       40.46       
H           60.04       41.23       41.77       
C           61.32       41.49       39.96       
C           61.28       41.32       38.61       
C           55.47       39.59       39.89       
C           55.96       39.49       41.19       
S           56.62       40.33       38.88       
H           57.91       39.91       42.24       
H           55.4        39.0        41.96       
C           57.34       39.97       41.34       
C           57.86       40.31       40.1        
C           52.24       39.33       37.64       
C           51.84       39.43       38.93       
S           53.92       39.32       37.71       
H           52.71       39.51       40.98       
H           50.86       39.54       39.29       
C           52.88       39.42       39.91       
C           54.12       39.36       39.38       
C           47.74       40.65       32.94       
C           47.68       39.91       34.15       
C           49.0        41.13       32.52       
C           48.91       39.69       34.92       
C           50.19       40.25       34.48       
C           48.88       39.04       36.15       
C           50.19       40.92       33.23       
C           51.39       41.55       32.64       
N           52.57       41.41       33.44       
C           52.59       40.75       34.67       
C           47.6        38.58       36.76       
N           46.4        38.83       36.03       
C           46.41       39.37       34.69       
O           47.6        38.14       37.89       
O           45.24       39.59       34.18       
O           51.3        42.38       31.71       
O           53.68       40.74       35.22       
C           53.82       41.94       32.84       
C           45.16       38.61       36.73       
H           54.68       41.89       33.49       
H           53.6        43.0        32.67       
H           54.09455    41.32754    31.98115    
H           44.49       39.41       36.47       
H           45.37       38.53       37.83       
H           44.66854    37.74271    36.28913    
H           49.03       41.65       31.55       
H           49.96       38.42       37.82       
C           50.07       38.94       36.88       
C           51.35       40.22       35.3        
C           51.27       39.59       36.54       
C           45.0        40.81       30.09       
C           45.51       42.03       30.32       
S           45.76       39.68       31.13       
H           46.78       43.0        31.86       
H           45.16       42.9        29.78       
C           46.44       42.05       31.37       
C           46.69       40.85       31.91       
C           42.39       39.06       27.9        
C           42.61       40.31       27.43       
S           43.35       38.73       29.26       
H           43.76       42.12       27.98       
H           42.07       40.58       26.55       
C           43.55       41.05       28.15       
C           44.02       40.34       29.16       
C           40.54       36.47       25.72       
C           40.3        36.07       27.02       
S           41.34       37.99       25.66       
H           40.99       36.79       28.99       
H           39.92       35.06       27.23       
C           40.9        36.95       27.94       
C           41.54       38.02       27.33       
C           39.34       31.87       21.14       
C           40.36       32.78       21.3        
C           38.32       31.91       22.03       
C           40.32       33.72       22.38       
C           39.22       33.79       23.24       
C           41.36       34.57       22.7        
C           38.22       32.79       23.05       
C           36.99       32.81       23.81       
N           36.78       33.81       24.77       
C           37.86       34.69       25.14       
C           42.57       34.66       21.78       
N           42.52       33.86       20.61       
C           41.49       32.88       20.38       
O           43.49       35.37       22.05       
O           41.8        32.01       19.49       
O           36.1        32.02       23.56       
O           37.62       35.6        25.91       
C           35.78       33.55       25.83       
C           43.59       34.03       19.63       
H           35.94       34.26       26.64       
H           36.05       32.58       26.29       
H           34.74864    33.62878    25.48621    
H           43.81       33.15       19.11       
H           44.5        34.29       20.07       
H           43.28285    34.75144    18.87284    
H           37.49       31.19       21.89       
H           42.21       36.03       23.86       
C           41.36       35.41       23.78       
C           39.06       34.76       24.3        
C           40.14       35.59       24.55       
C           38.61       30.08       17.7        
C           38.43       29.18       18.75       
S           38.99       31.58       18.42       
H           38.62       29.03       21.0        
H           38.1        28.25       18.52       
C           38.7        29.61       20.05       
C           39.04       30.93       20.0        
C           39.07       28.65       14.1        
C           38.64       29.92       13.96       
S           39.1        28.12       15.74       
H           38.37       31.65       15.32       
H           38.63       30.37       13.01       
C           38.51       30.59       15.25       
C           38.65       29.71       16.27       
C           41.47       26.68       11.85       
C           40.57       27.32       11.06       
S           41.15       27.15       13.51       
H           38.82       28.58       11.27       
H           40.56       27.13       9.98        
C           39.56       27.99       11.73       
C           39.64       27.85       13.08       
C           47.86       26.39       10.58       
C           46.83       27.12       9.97        
C           47.52       25.39       11.45       
C           45.51       26.89       10.4        
C           45.2        25.92       11.36       
C           44.48       27.67       9.82        
C           46.19       25.18       11.86       
C           45.99       23.98       12.69       
N           44.65       23.72       13.14       
C           43.61       24.54       12.8        
C           44.7        28.57       8.7         
N           46.07       28.78       8.36        
C           47.12       28.13       8.87        
O           43.76       29.21       8.26        
O           48.28       28.42       8.49        
O           46.92       23.15       12.86       
O           42.46       24.28       13.14       
C           44.46       22.28       13.55       
C           46.4        29.5        7.09        
H           45.24       21.66       13.15       
H           43.5        21.85       13.19       
H           44.41948    22.09764    14.62387    
H           47.27       30.12       7.17        
H           45.71       30.27       6.87        
H           46.4        28.84485    6.21886     
H           48.31       24.66       11.77       
H           42.47       28.09       9.9         
C           43.19       27.39       10.3        
C           43.85       25.66       11.78       
C           42.81       26.43       11.3        
C           51.39       25.52       9.3         
C           51.45       25.96       10.64       
S           49.74       25.55       8.82        
H           50.02       26.95       12.1        
H           52.39       25.91       11.15       
C           50.23       26.45       11.11       
C           49.21       26.32       10.27       
C           54.28       24.81       6.76        
C           54.58       24.21       7.97        
S           52.6        25.24       6.74        
H           53.7        24.34       10.06       
H           55.57       23.8        8.17        
C           53.58       24.39       9.0         
C           52.47       25.05       8.49        
C           57.07       24.59       4.02        
C           56.04       25.45       3.66        
S           56.62       23.86       5.5         
H           54.27       26.46       4.45        
H           56.15       26.11       2.79        
C           55.03       25.68       4.58        
C           55.16       24.85       5.65        
C           63.17       23.9        1.41        
C           62.37       25.02       1.71        
C           62.58       22.61       1.55        
C           61.09       24.86       2.23        
C           60.53       23.54       2.39        
C           60.29       25.97       2.62        
C           61.28       22.4        1.99        
C           60.84       21.02       2.18        
N           59.54       20.86       2.64        
C           58.69       21.93       3.01        
C           60.77       27.37       2.59        
N           62.09       27.44       2.12        
C           62.87       26.42       1.58        
O           60.05       28.25       3.03        
O           63.99       26.67       1.18        
O           61.49       20.12       1.73        
O           57.55       21.74       3.39        
C           59.11       19.54       3.15        
C           62.67       28.83       2.25        
H           59.11       18.88       2.33        
H           58.13       19.53       3.69        
H           59.80439    19.1526     3.89555     
H           63.75       28.65       2.54        
H           62.12       29.28       3.12        
H           62.61385    29.4126     1.33048     
H           63.13       21.7        1.49        
H           58.46       26.67       3.53        
C           59.01       25.78       3.22        
C           59.2        23.38       2.91        
C           58.37       24.5        3.3         
C           67.13       24.04       1.47        
C           66.81       23.21       0.43        
S           65.72       24.7        2.33        
H           64.99       22.65       -0.49       
H           67.5        22.65       -0.26       
C           65.41       23.2        0.27        
C           64.66       23.87       1.29        
C           70.8        24.26       2.83        
C           70.04       25.11       3.54        
S           69.88       23.5        1.59        
H           67.93       25.71       3.7         
H           70.43       25.79       4.25        
C           68.69       25.13       3.18        
C           68.45       24.38       2.08        
C           74.67       24.21       3.39        
C           74.34       23.19       2.52        
S           73.29       25.11       3.77        
H           72.48       22.4        1.48        
H           75.12       22.59       2.06        
C           72.93       23.06       2.28        
C           72.22       24.05       2.9         
C           79.98       24.87       7.07        
C           79.09       23.81       6.84        
C           79.98       25.96       6.25        
C           78.14       24.0        5.81        
C           78.06       25.14       4.99        
C           77.25       22.95       5.57        
C           79.01       26.13       5.24        
C           79.06       27.42       4.46        
N           77.98       27.63       3.56        
C           76.88       26.72       3.39        
C           77.26       21.7        6.35        
N           78.28       21.56       7.29        
C           79.22       22.55       7.61        
O           76.45       20.76       6.01        
O           80.08       22.27       8.44        
O           79.9        28.28       4.72        
O           76.06       27.02       2.57        
C           78.36       28.48       2.42        
C           78.27       20.34       8.14        
H           77.8        28.12       1.59        
H           79.4        28.47       2.25        
H           78.05182    29.51922    2.53467     
H           79.28       20.03       8.39        
H           77.98       19.54       7.5         
H           77.64915    20.3761     9.03518     
H           80.71       26.73       6.46        
H           75.46       22.42       4.65        
C           76.25       23.15       4.67        
C           77.0        25.38       4.11        
C           75.97       24.33       4.02        
C           82.09       25.4        10.37       
C           82.93       24.95       9.41        
S           80.48       25.37       9.8         
H           82.84       24.56       7.28        
H           84.03       24.89       9.58        
C           82.28       24.62       8.2         
C           80.96       24.91       8.17        
C           83.62       27.38       13.43       
C           82.4        26.89       13.81       
S           83.95       26.82       11.82       
H           80.74       25.65       12.95       
H           82.02       27.17       14.77       
C           81.7        26.14       12.81       
C           82.42       25.95       11.66       
C           86.42       29.79       14.09       
C           85.69       29.73       15.23       
S           85.78       28.63       12.97       
H           83.76       28.84       15.9        
H           85.91       30.22       16.12       
C           84.57       28.88       15.15       
C           84.55       28.16       14.05       
C           92.64       32.29       13.6        
C           91.94       31.49       14.5        
C           91.77       32.82       12.57       
C           90.56       31.15       14.32       
C           89.82       31.47       13.17       
C           89.86       30.44       15.33       
C           90.47       32.37       12.38       
C           89.84       32.86       11.16       
N           88.48       32.47       10.91       
C           87.8        31.55       11.75       
C           90.51       30.1        16.65       
N           91.84       30.52       16.81       
C           92.65       30.99       15.79       
O           89.81       29.8        17.61       
O           93.79       31.3        16.1        
O           90.44       33.44       10.3        
O           86.68       31.2        11.46       
C           87.89       32.67       9.55        
C           92.58       30.04       17.98       
H           86.81       32.63       9.67        
H           88.18       31.92       8.81        
H           88.00161    33.68146    9.15937     
H           93.6        29.72       17.75       
H           92.08       29.18       18.25       
H           92.67797    30.76079    18.79176    
H           92.11       33.61       11.86       
H           87.99       29.55       15.98       
C           88.48       30.16       15.21       
C           88.46       31.09       12.99       
C           87.76       30.44       14.02       
C           96.01       34.26       13.39       
C           95.79       33.61       12.21       
S           94.66       34.04       14.46       
H           94.51       31.99       11.46       
H           96.51       33.61       11.37       
C           94.71       32.7        12.3        
C           93.93       32.88       13.44       
C           99.26       36.16       14.2        
C           98.18       36.93       14.64       
S           98.74       34.72       13.42       
H           95.96       36.7        14.73       
H           98.3        37.99       15.09       
C           96.94       36.27       14.49       
C           97.07       35.19       13.78       
C           102.71      37.68       14.84       
C           102.93      36.56       14.05       
S           101.05      37.87       15.24       
H           101.64      34.85       13.5        
H           103.94      36.17       13.76       
C           101.7       35.84       13.88       
C           100.64      36.46       14.31       
C           107.19      41.24       18.29       
C           107.07      39.87       18.04       
C           106.17      42.12       17.77       
C           106.0       39.4        17.2        
C           105.01      40.28       16.72       
C           105.74      38.04       16.97       
C           105.13      41.67       17.04       
C           104.24      42.72       16.57       
N           103.14      42.32       15.76       
C           103.0       40.92       15.33       
C           106.51      37.02       17.7        
N           107.5       37.46       18.63       
C           107.88      38.82       18.73       
O           106.25      35.79       17.7        
O           108.9       39.02       19.4        
O           104.42      43.95       16.74       
O           102.18      40.66       14.49       
C           101.99      43.26       15.57       
C           108.01      36.57       19.68       
H           101.87      43.78       16.5        
H           101.08      42.6        15.46       
H           102.09143   43.95549    14.73687    
H           109.06      36.8        19.97       
H           107.98      35.54       19.32       
H           107.40032   36.64984    20.58001    
H           106.18      43.17       17.96       
H           104.57      36.61       15.92       
C           104.74      37.62       16.08       
C           103.96      39.83       15.8        
C           103.8       38.46       15.46       
C           107.99      42.8        21.78       
C           108.5       43.63       20.85       
S           107.26      41.42       21.07       
H           108.34      43.9        18.62       
H           109.04      44.56       21.09       
C           108.22      43.25       19.47       
C           107.75      41.96       19.44       
C           107.27      44.15       25.37       
C           107.13      42.79       25.39       
S           107.49      44.68       23.71       
H           107.56      41.1        23.96       
H           107.01      42.27       26.29       
C           107.37      42.18       24.13       
C           107.72      43.04       23.15       
C           107.81      47.05       27.76       
C           106.79      46.36       28.33       
S           108.33      46.44       26.27       
H           105.53      44.67       27.72       
H           106.23      46.62       29.24       
C           106.43      45.22       27.57       
C           107.26      45.09       26.45       
C           110.7       52.29       30.73       
C           109.38      52.01       30.35       
C           111.7       51.37       30.37       
C           109.0       50.72       29.78       
C           110.05      49.83       29.46       
C           107.64      50.36       29.44       
C           111.36      50.16       29.77       
C           112.51      49.16       29.64       
N           112.07      47.95       29.18       
C           110.8       47.58       28.85       
C           106.49      51.3        29.57       
N           106.93      52.45       30.08       
C           108.23      52.93       30.46       
O           105.3       51.02       29.34       
O           108.43      54.08       30.83       
O           113.66      49.4        29.96       
O           110.6       46.48       28.47       
C           112.94      46.88       29.59       
C           105.89      53.48       30.1        
H           112.35      46.13       30.06       
H           113.63      47.16       30.4        
H           113.49382   46.56986    28.70389    
H           106.06      54.18       30.86       
H           104.89      53.09       30.36       
H           105.83106   53.92204    29.1054     
H           112.73      51.58       30.62       
H           106.32      48.87       28.66       
C           107.38      49.15       28.84       
C           109.7       48.58       28.88       
C           108.36      48.2        28.57       
C           112.42      55.6        32.07       
C           111.69      55.1        33.08       
S           112.49      54.49       30.73       
H           110.18      53.58       33.22       
H           111.52      55.62       34.02       
C           110.91      54.01       32.57       
C           111.27      53.5        31.34       
C           114.55      58.7        32.9        
C           114.78      58.41       31.58       
S           113.26      57.74       33.57       
H           114.11      56.83       30.2        
H           115.61      58.79       31.04       
C           114.04      57.27       31.15       
C           113.19      56.78       32.11       
C           117.23      61.12       34.55       
C           116.28      60.76       35.51       
S           116.61      60.52       33.05       
H           114.68      59.17       35.72       
H           116.19      61.22       36.52       
C           115.3       59.8        35.05       
C           115.33      59.58       33.69       
C           122.02      65.68       35.04       
C           120.77      65.46       35.63       
C           122.41      64.71       34.12       
C           120.0       64.32       35.36       
C           120.43      63.33       34.52       
C           118.75      64.21       35.97       
C           121.63      63.61       33.83       
C           122.08      62.73       32.76       
N           121.19      61.65       32.4        
C           120.07      61.26       33.16       
C           118.12      65.29       36.75       
N           118.87      66.48       36.93       
C           120.24      66.6        36.51       
O           116.9       65.16       37.12       
O           120.75      67.64       36.75       
O           123.08      62.92       32.03       
O           119.54      60.16       32.84       
C           121.56      60.81       31.27       
C           118.23      67.77       37.27       
H           121.23      59.75       31.49       
H           122.62      60.62       31.25       
H           121.35494   61.23426    30.28712    
H           118.81      68.4        37.88       
H           117.24      67.61       37.65       
H           117.99402   68.31136    36.35385    
H           123.3       64.8        33.59       
H           117.19      62.91       36.47       
C           118.01      63.06       35.76       
C           119.61      62.16       34.23       
C           118.39      62.02       34.87       
C           123.75      69.28       34.46       
C           124.63      68.44       35.01       
S           122.19      68.46       34.38       
H           124.76      66.38       35.82       
H           125.7       68.64       35.15       
C           124.11      67.11       35.32       
C           122.82      66.97       35.05       
C           123.39      72.71       32.74       
C           124.76      72.62       33.03       
S           122.5       71.32       33.33       
H           126.13      70.97       33.69       
H           125.51      73.27       32.6        
C           125.11      71.32       33.54       
C           123.96      70.56       33.89       
H           70.22       44.58       32.03       
H           123.2       73.4        31.84       
