512

C           68.41       34.03       31.17       
C           69.65       33.64       31.62       
S           67.42       32.63       31.17       
H           70.76       31.86       32.23       
H           70.34       34.39       31.87       
C           69.85       32.26       31.74       
C           68.73       31.52       31.64       
C           67.79       40.24       29.21       
C           68.6        39.24       28.86       
C           66.93       40.09       30.29       
C           68.46       37.99       29.49       
C           67.54       37.73       30.56       
C           69.2        36.9        29.01       
C           66.78       38.89       30.86       
C           65.79       38.84       31.92       
N           65.62       37.56       32.48       
C           66.38       36.41       32.13       
C           70.11       36.97       27.83       
N           70.11       38.17       27.13       
C           69.42       39.26       27.62       
O           70.82       36.02       27.54       
O           69.59       40.34       27.06       
O           65.03       39.73       32.25       
O           66.28       35.38       32.84       
C           64.79       37.44       33.65       
C           71.3        38.45       26.22       
H           64.01       38.17       33.56       
H           64.31       36.46       33.62       
H           65.43634    37.5651     34.51873    
H           70.97       39.14       25.38       
H           71.55       37.54       25.7        
H           72.14979    38.90703    26.72702    
H           66.14       40.83       30.4        
H           69.72       34.84       29.31       
C           69.11       35.65       29.63       
C           67.44       36.49       31.12       
C           68.21       35.41       30.73       
C           66.24       43.28       27.06       
C           66.3        43.58       28.34       
S           66.95       41.7        26.9        
H           67.24       42.84       30.26       
H           65.94       44.56       28.71       
C           67.05       42.65       29.13       
C           67.43       41.53       28.56       
C           65.36       45.83       24.31       
C           65.67       44.65       23.64       
S           65.37       45.65       26.02       
H           66.08       42.57       24.26       
H           65.75       44.5        22.59       
C           65.86       43.56       24.57       
C           65.87       44.04       25.86       
C           63.88       49.08       22.66       
C           64.41       49.38       23.94       
S           64.49       47.46       22.24       
H           65.22       48.26       25.72       
H           64.19       50.35       24.41       
C           64.92       48.24       24.64       
C           65.13       47.18       23.84       
C           62.08       54.08       18.74       
C           61.39       53.23       19.6        
C           63.5        54.08       18.93       
C           62.05       52.26       20.43       
C           63.45       52.19       20.47       
C           61.34       51.24       21.08       
C           64.18       53.21       19.76       
C           65.63       53.33       19.69       
N           66.31       52.22       20.29       
C           65.64       51.25       21.05       
C           59.91       51.2        21.14       
N           59.24       52.23       20.46       
C           59.86       53.21       19.62       
O           59.32       50.25       21.66       
O           59.17       54.09       19.09       
O           66.22       54.16       18.99       
O           66.32       50.3        21.46       
C           67.79       52.31       20.42       
C           57.88       52.42       20.88       
H           68.1        51.62       21.21       
H           68.12       53.24       20.87       
H           68.30514    52.10536    19.48146    
H           57.65       53.37       21.36       
H           57.69       51.76       21.64       
H           57.13022    52.24529    20.10838    
H           64.13       54.87       18.4        
H           61.4        49.59       22.31       
C           62.04       50.25       21.75       
C           64.11       51.2        21.13       
C           63.41       50.19       21.75       
C           60.95       56.59       15.95       
C           61.52       57.35       16.93       
S           60.91       54.88       16.4        
H           62.19       57.03       18.99       
H           61.51       58.51       16.96       
C           61.86       56.57       18.03       
C           61.65       55.18       17.94       
C           58.6        57.28       12.9        
C           59.27       58.42       13.26       
S           59.17       56.0        13.89       
H           60.65       59.07       14.83       
H           58.86       59.37       12.85       
C           60.24       58.26       14.29       
C           60.29       57.03       14.79       
C           55.19       56.46       11.04       
C           56.02       57.16       10.21       
S           56.05       56.09       12.47       
H           58.07       58.11       10.33       
H           55.68       57.51       9.26        
C           57.23       57.6        10.85       
C           57.44       57.03       12.04       
C           49.04       54.42       9.57        
C           49.67       54.86       10.69       
C           49.79       54.44       8.39        
C           51.1        55.08       10.65       
C           51.9        55.06       9.49        
C           51.77       55.5        11.86       
C           51.12       54.77       8.3         
C           51.72       54.8        6.98        
N           53.04       55.13       6.97        
C           53.87       55.48       8.05        
C           51.12       55.58       13.21       
N           49.68       55.42       13.13       
C           48.96       55.02       11.99       
O           51.66       56.03       14.25       
O           47.78       55.03       12.1        
O           51.2        54.27       6.09        
O           55.05       55.59       7.81        
C           53.73       54.97       5.68        
C           48.98       55.43       14.43       
H           53.38       54.09       5.19        
H           54.81       54.86       5.65        
H           53.34554    55.64805    4.91807     
H           48.07       56.09       14.37       
H           49.62       56.07       15.08       
H           48.79264    54.47238    14.91575    
H           49.33       54.16       7.51        
H           53.48       56.16       12.73       
C           53.17       55.74       11.81       
C           53.27       55.44       9.44        
C           53.92       55.72       10.63       
C           45.73       52.44       8.64        
C           45.38       53.62       9.25        
S           47.45       52.28       8.53        
H           46.47       55.4        9.97        
H           44.34       53.89       9.48        
C           46.5        54.41       9.58        
C           47.69       53.89       9.23        
C           43.86       49.41       6.93        
C           42.9        50.27       7.37        
S           45.42       50.05       7.28        
H           42.81       52.27       8.37        
H           41.83       50.09       7.1         
C           43.42       51.48       8.02        
C           44.82       51.5        8.02        
C           44.15       45.72       5.59        
C           42.91       45.88       6.09        
S           45.06       47.26       5.74        
H           41.77       47.43       7.21        
H           42.2        45.06       6.12        
C           42.65       47.25       6.62        
C           43.68       48.09       6.45        
C           47.06       40.56       2.9         
C           45.92       41.32       2.57        
C           47.8        40.94       3.99        
C           45.56       42.37       3.47        
C           46.39       42.72       4.54        
C           44.49       43.2        3.16        
C           47.54       42.01       4.78        
C           48.37       42.17       5.99        
N           47.91       43.31       6.79        
C           46.86       44.22       6.57        
C           43.59       42.93       2.01        
N           43.88       41.83       1.17        
C           45.01       40.98       1.38        
O           42.64       43.59       1.8         
O           45.42       40.2        0.54        
O           49.2        41.39       6.45        
O           46.57       45.02       7.38        
C           48.72       43.51       7.92        
C           43.04       41.59       0.02        
H           49.06       42.65       8.44        
H           48.27       44.09       8.59        
H           49.62197    44.06836    7.66945     
H           43.61       41.2        -0.81       
H           42.79       42.54       -0.4        
H           42.23344    40.8997     0.26706     
H           48.68       40.31       4.17        
H           43.22       44.76       3.73        
C           44.16       44.2        4.0         
C           46.02       43.76       5.43        
C           44.8        44.46       5.14        
C           49.38       38.1        0.75        
C           48.23       37.48       1.11        
S           49.19       39.71       1.19        
H           46.33       37.97       2.26        
H           47.95       36.46       0.96        
C           47.29       38.31       1.82        
C           47.77       39.48       2.16        
C           52.17       35.92       -0.99       
C           52.38       37.19       -1.3        
S           50.72       35.85       -0.05       
H           51.56       39.26       -0.84       
H           53.27       37.52       -1.81       
C           51.47       38.14       -0.69       
C           50.51       37.57       0.05        
C           54.86       33.31       -1.95       
C           53.83       32.68       -1.4        
S           54.53       35.0        -2.02       
H           51.93       33.16       -0.31       
H           53.84       31.52       -1.3        
C           52.87       33.49       -0.84       
C           53.03       34.75       -1.23       
C           60.08       29.78       -4.21       
C           58.79       30.0        -4.71       
C           60.45       30.55       -3.11       
C           57.9        30.83       -3.94       
C           58.24       31.5        -2.68       
C           56.53       30.99       -4.29       
C           59.6        31.36       -2.37       
C           60.14       32.06       -1.15       
N           59.24       32.93       -0.46       
C           57.89       33.11       -0.82       
C           55.99       30.38       -5.54       
N           56.89       29.53       -6.29       
C           58.2        29.28       -5.95       
O           54.9        30.59       -6.0        
O           58.76       28.46       -6.62       
O           61.29       31.9        -0.75       
O           57.15       33.69       -0.05       
C           59.79       33.99       0.43        
C           56.44       29.0        -7.63       
H           59.01       34.75       0.59        
H           60.59       34.48       -0.11       
H           60.15985    33.58526    1.37207     
H           57.27       29.11       -8.36       
H           55.57       29.6        -7.96       
H           56.0329     27.98927    -7.60192    
H           61.5        30.65       -2.86       
H           54.71       31.78       -3.89       
C           55.74       31.8        -3.56       
C           57.34       32.38       -2.0        
C           56.04       32.52       -2.46       
C           63.51       28.07       -4.9        
C           62.94       28.35       -6.11       
S           62.43       28.56       -3.64       
H           61.0        29.23       -6.8        
H           63.34       27.98       -7.05       
C           61.65       28.96       -5.98       
C           61.29       29.2        -4.73       
C           66.39       25.51       -4.43       
C           66.34       26.27       -3.3        
S           65.14       25.98       -5.66       
H           65.08       27.95       -2.58       
H           66.96       26.14       -2.41       
C           65.35       27.3        -3.41       
C           64.65       27.25       -4.56       
C           68.73       22.27       -4.48       
C           68.31       22.52       -5.79       
S           68.07       23.45       -3.46       
H           67.2        24.19       -6.87       
H           68.55       21.81       -6.63       
C           67.51       23.72       -5.9        
C           67.24       24.33       -4.66       
C           73.78       18.39       -2.43       
C           73.61       19.1        -3.66       
C           72.84       18.59       -1.4        
C           72.37       19.82       -3.89       
C           71.34       19.88       -2.82       
C           72.12       20.54       -5.08       
C           71.66       19.25       -1.59       
C           70.72       19.18       -0.47       
N           69.56       19.86       -0.72       
C           69.17       20.39       -1.93       
C           72.96       20.46       -6.27       
N           74.21       19.74       -6.06       
C           74.58       19.11       -4.81       
O           72.7        21.11       -7.24       
O           75.73       18.81       -4.49       
O           70.97       18.96       0.6         
O           68.07       20.85       -2.07       
C           68.47       19.88       0.31        
C           75.35       20.18       -6.9        
H           68.53       19.09       0.95        
H           67.55       19.74       -0.23       
H           68.57619    20.80252    0.88077     
H           75.94       20.81       -6.33       
H           74.83       20.76       -7.64       
H           75.98795    19.3895     -7.29525    
H           72.95       18.07       -0.43       
H           70.78       21.68       -6.21       
C           70.84       21.11       -5.27       
C           70.12       20.56       -3.04       
C           69.81       21.22       -4.24       
C           76.79       16.22       -0.95       
C           76.5        15.75       -2.21       
S           75.7        17.54       -0.5        
H           75.03       16.32       -3.79       
H           76.97       14.92       -2.67       
C           75.45       16.52       -2.8        
C           74.82       17.48       -1.99       
C           80.19       15.25       0.72        
C           79.36       15.67       1.67        
S           79.5        15.5        -0.92       
H           77.18       16.17       1.77        
H           79.55       15.67       2.75        
C           78.02       15.93       1.16        
C           77.94       15.84       -0.19       
C           84.05       14.85       1.49        
C           83.77       14.35       0.27        
S           82.52       15.4        2.24        
H           82.04       13.92       -1.02       
H           84.5        13.94       -0.34       
C           82.39       14.3        -0.1        
C           81.57       14.96       0.81        
C           89.65       17.21       4.02        
C           89.03       17.37       2.73        
C           88.98       16.43       4.94        
C           87.8        16.67       2.47        
C           87.17       15.79       3.42        
C           87.07       16.81       1.25        
C           87.77       15.8        4.71        
C           87.3        15.01       5.82        
N           86.08       14.38       5.57        
C           85.45       14.33       4.33        
C           87.57       17.69       0.23        
N           88.71       18.45       0.54        
C           89.55       18.29       1.69        
O           86.9        17.9        -0.84       
O           90.57       18.97       1.69        
O           87.84       15.12       6.92        
O           84.43       13.65       4.15        
C           85.52       13.57       6.68        
C           89.17       19.53       -0.33       
H           86.37       13.18       7.26        
H           85.03       12.71       6.2         
H           84.70403    14.06988    7.20193     
H           89.71       20.33       0.22        
H           88.3        20.0        -0.68       
H           89.7252     19.17115    -1.19665    
H           89.47       16.42       5.89        
H           85.55       16.17       -0.01       
C           86.07       15.99       0.94        
C           86.02       15.06       3.17        
C           85.46       15.13       1.85        
C           92.32       19.3        5.93        
C           92.74       18.03       5.91        
S           91.01       19.44       4.92        
H           91.96       16.09       5.28        
H           93.66       17.82       6.43        
C           91.85       17.13       5.25        
C           90.9        17.75       4.59        
C           94.37       21.97       7.85        
C           93.54       22.64       7.0         
S           94.11       20.25       7.7         
H           92.04       22.07       5.5         
H           93.46       23.73       6.85        
C           92.74       21.77       6.22        
C           92.94       20.46       6.51        
C           97.16       24.15       9.66        
C           96.68       23.25       10.59       
S           96.33       23.92       8.11        
H           95.3        21.56       10.63       
H           97.04       23.2        11.61       
C           95.74       22.36       10.04       
C           95.36       22.64       8.76        
C           101.79      28.12       11.85       
C           101.64      27.31       10.7        
C           100.72      28.17       12.69       
C           100.46      26.6        10.46       
C           99.37       26.66       11.38       
C           100.22      25.95       9.24        
C           99.56       27.47       12.49       
C           98.52       27.63       13.6        
N           97.28       27.01       13.34       
C           97.02       26.19       12.21       
C           101.29      25.9        8.16        
N           102.48      26.67       8.46        
C           102.75      27.2        9.69        
O           101.09      25.46       7.04        
O           103.85      27.59       9.92        
O           98.82       28.28       14.63       
O           95.98       25.55       12.12       
C           96.09       27.54       14.02       
C           103.52      26.84       7.5         
H           95.27       26.9        13.7        
H           95.92       28.57       13.75       
H           96.11129    27.34131    15.09153    
H           104.03      27.81       7.64        
H           103.05      26.89       6.52        
H           104.3256    26.10633    7.52877     
H           100.85      28.7        13.65       
H           98.95       24.68       8.14        
C           99.06       25.28       9.08        
C           98.15       26.02       11.18       
C           98.07       25.22       9.97        
C           104.36      30.44       13.61       
C           105.01      29.33       13.29       
S           102.68      30.4        13.12       
H           104.63      27.42       12.3        
H           106.06      29.13       13.56       
C           104.23      28.38       12.64       
C           102.96      28.86       12.43       
C           105.33      32.86       16.66       
C           104.32      33.42       15.94       
S           105.82      31.35       15.91       
H           103.04      32.9        14.19       
H           103.93      34.43       16.21       
C           103.86      32.65       14.83       
C           104.72      31.56       14.57       
C           107.65      33.75       19.69       
C           107.15      34.98       19.26       
S           106.99      32.49       18.73       
H           105.83      35.69       17.59       
H           107.37      35.96       19.74       
C           106.16      34.83       18.2        
C           106.03      33.55       17.76       
C           112.08      32.78       24.48       
C           110.77      33.3        24.52       
C           112.67      32.57       23.26       
C           110.08      33.48       23.31       
C           110.63      33.16       22.02       
C           108.74      33.88       23.26       
C           111.96      32.75       22.1        
C           112.76      32.35       20.89       
N           111.96      32.27       19.71       
C           110.66      32.83       19.55       
C           107.98      34.16       24.48       
N           108.67      34.06       25.7        
C           110.03      33.72       25.75       
O           106.83      34.59       24.41       
O           110.46      33.5        26.89       
O           113.97      32.01       20.91       
O           110.18      32.83       18.42       
C           112.57      31.63       18.55       
C           108.07      34.43       26.97       
H           113.66      31.72       18.55       
H           112.21      32.15       17.65       
H           112.23846   30.59394    18.61907    
H           108.46      33.74       27.74       
H           107.03      34.24       26.96       
H           108.21027   35.46801    27.27158    
H           113.74      32.25       23.2        
H           107.05      34.41       21.95       
C           108.05      34.0        21.99       
C           109.94      33.19       20.79       
C           108.6       33.56       20.81       
C           114.75      32.66       27.37       
C           114.66      31.41       26.88       
S           113.74      33.83       26.62       
H           113.4       30.49       25.24       
H           115.32      30.66       27.24       
C           113.64      31.41       25.81       
C           112.99      32.56       25.62       
C           116.84      34.09       30.42       
C           117.51      33.05       29.91       
S           115.4       34.42       29.5        
H           117.29      31.55       28.46       
H           118.39      32.54       30.33       
C           116.93      32.49       28.77       
C           115.74      33.14       28.36       
C           117.95      35.73       33.77       
C           117.4       36.76       33.06       
S           117.89      34.21       32.9        
H           116.41      36.92       31.1        
H           117.47      37.8        33.38       
C           116.89      36.29       31.83       
C           117.08      34.91       31.58       
C           121.69      36.84       39.15       
C           120.31      36.96       38.88       
C           122.43      36.41       38.06       
C           119.76      36.59       37.58       
C           120.57      36.06       36.56       
C           118.35      36.69       37.32       
C           121.93      35.95       36.87       
C           122.92      35.59       35.87       
N           122.4       35.25       34.62       
C           121.04      35.29       34.25       
C           117.48      37.2        38.4        
N           118.02      37.62       39.57       
C           119.38      37.59       39.9        
O           116.29      37.28       38.1        
O           119.67      37.95       41.03       
O           124.14      35.62       36.02       
O           120.79      34.88       33.1        
C           123.39      34.82       33.65       
C           117.09      38.46       40.39       
H           124.2       35.5        33.56       
H           122.98      34.63       32.61       
H           123.81267   33.85287    33.92223    
H           117.26      38.37       41.47       
H           116.08      38.12       40.23       
H           117.08271   39.5247     40.15664    
H           123.54      36.34       38.21       
H           116.77      36.46       35.89       
C           117.91      36.4        36.06       
C           120.04      35.77       35.28       
C           118.71      35.93       35.0        
C           123.64      36.31       42.48       
C           124.26      37.35       41.73       
S           122.08      35.94       41.74       
H           124.01      38.38       39.76       
H           125.22      37.76       41.95       
C           123.62      37.7        40.49       
C           122.43      37.02       40.41       
C           125.87      34.03       44.8        
C           124.62      33.58       44.87       
S           125.92      35.54       43.94       
H           122.59      34.18       44.08       
H           124.4       32.64       45.34       
C           123.67      34.45       44.21       
C           124.25      35.53       43.57       
H           68.65       30.55       32.12       
H           126.8       33.48       45.18       
