512

C           70.14       34.15       39.15       
C           69.77       33.21       40.0        
S           71.82       33.89       38.7        
H           70.65       31.47       41.13       
H           68.69       33.1        40.32       
C           70.78       32.3        40.39       
C           71.84       32.44       39.6        
C           65.65       38.39       36.65       
C           66.79       37.71       36.13       
C           65.52       38.26       38.09       
C           67.55       36.9        37.04       
C           67.3        36.63       38.38       
C           68.75       36.26       36.48       
C           66.2        37.36       38.91       
C           65.74       37.28       40.29       
N           66.56       36.44       41.12       
C           67.75       35.83       40.61       
C           69.12       36.32       35.08       
N           68.35       37.16       34.22       
C           67.23       37.9        34.69       
O           70.16       35.78       34.76       
O           66.59       38.54       33.9        
O           64.85       37.87       40.85       
O           68.35       35.22       41.52       
C           66.48       36.78       42.57       
C           68.37       36.83       32.77       
H           67.51       36.68       42.95       
H           66.21       37.89       42.64       
H           65.77721    36.15609    43.12219    
H           67.33       36.63       32.36       
H           69.01       36.0        32.62       
H           68.88048    37.61761    32.21576    
H           64.69       38.76       38.55       
H           70.37       34.96       36.8        
C           69.52       35.48       37.3        
C           68.07       35.79       39.17       
C           69.25       35.17       38.63       
C           62.52       40.4        35.56       
C           63.55       41.21       35.19       
S           63.0        38.9        36.23       
H           65.77       41.06       35.41       
H           63.37       42.22       34.82       
C           64.79       40.58       35.5        
C           64.65       39.31       36.05       
C           58.72       40.52       34.71       
C           59.19       41.8        34.84       
S           60.04       39.36       34.88       
H           61.16       42.83       35.17       
H           58.52       42.61       34.71       
C           60.55       41.88       35.16       
C           61.13       40.6        35.36       
C           55.19       39.65       33.1        
C           55.55       38.64       33.89       
S           56.26       40.98       33.21       
H           57.23       38.08       35.2        
H           55.1        37.65       33.84       
C           56.76       38.84       34.59       
C           57.38       40.01       34.26       
C           49.8        38.33       29.59       
C           50.01       38.95       30.85       
C           50.94       38.17       28.8        
C           51.32       39.36       31.25       
C           52.46       39.02       30.49       
C           51.6        39.86       32.58       
C           52.21       38.55       29.18       
C           53.29       38.01       28.34       
N           54.59       38.12       28.81       
C           54.94       38.72       30.03       
C           50.53       40.19       33.53       
N           49.23       39.77       33.08       
C           48.95       39.26       31.81       
O           50.65       40.68       34.66       
O           47.73       39.08       31.54       
O           52.94       37.46       27.32       
O           56.13       38.8        30.31       
C           55.48       37.06       28.3        
C           48.3        39.4        34.18       
H           54.98       36.04       28.44       
H           56.42       36.94       28.91       
H           55.79146    37.22611    27.26874    
H           47.29       39.71       33.87       
H           48.46       39.99       35.0        
H           48.32077    38.34073    34.43616    
H           50.78       37.73       27.84       
H           53.09       40.31       34.03       
C           52.93       39.99       33.02       
C           53.83       39.14       30.94       
C           54.01       39.57       32.22       
C           46.5        36.45       28.52       
C           46.23       37.82       28.46       
S           48.07       36.17       29.23       
H           47.43       39.61       28.58       
H           45.31       38.3        28.27       
C           47.46       38.58       28.59       
C           48.58       37.82       28.98       
C           44.19       33.53       27.49       
C           43.62       34.12       28.61       
S           45.74       34.19       27.11       
H           44.07       35.81       29.86       
H           42.67       33.78       29.06       
C           44.37       35.21       29.06       
C           45.56       35.37       28.35       
C           43.55       30.36       25.26       
C           42.85       30.18       26.44       
S           44.16       31.98       25.14       
H           42.7        31.29       28.27       
H           42.27       29.32       26.61       
C           43.02       31.36       27.24       
C           43.78       32.35       26.78       
C           42.17       26.53       20.05       
C           43.29       26.64       20.88       
C           41.1        27.32       20.34       
C           43.32       27.53       21.96       
C           42.23       28.35       22.26       
C           44.52       27.86       22.67       
C           41.09       28.17       21.42       
C           39.85       28.99       21.61       
N           39.89       29.92       22.63       
C           41.05       30.19       23.38       
C           45.79       27.19       22.42       
N           45.73       26.24       21.45       
C           44.53       25.94       20.69       
O           46.9        27.44       22.9        
O           44.68       25.08       19.83       
O           38.84       28.69       20.95       
O           40.91       31.14       24.17       
C           38.93       31.04       22.47       
C           46.89       25.37       21.27       
H           38.72       31.13       21.38       
H           39.32       31.96       22.85       
H           38.06218    30.85506    23.10308    
H           46.68       24.38       21.08       
H           47.54       25.35       22.21       
H           47.52296    25.64428    20.42606    
H           40.2        27.23       19.72       
H           45.37       28.9        24.29       
C           44.48       28.79       23.74       
C           42.25       29.32       23.3        
C           43.32       29.46       24.14       
C           41.97       25.14       16.29       
C           41.8        24.06       17.2        
S           42.29       26.58       17.23       
H           41.81       23.7        19.39       
H           41.68       23.06       16.85       
C           41.9        24.45       18.56       
C           42.11       25.84       18.76       
C           42.4        24.69       12.37       
C           41.39       25.66       12.63       
S           42.94       24.08       13.88       
H           40.59       26.83       14.32       
H           40.89       26.26       11.79       
C           41.2        25.96       14.01       
C           41.92       25.14       14.77       
C           44.18       23.97       8.87        
C           43.69       22.81       9.49        
S           43.79       25.32       9.92        
H           43.03       22.2        11.41       
H           43.9        21.85       9.09        
C           43.3        23.03       10.82       
C           42.98       24.31       11.1        
C           48.37       23.21       3.63        
C           48.42       24.04       4.75        
C           47.35       22.3        3.48        
C           47.3        24.0        5.67        
C           46.16       23.14       5.48        
C           47.3        24.74       6.87        
C           46.23       22.26       4.33        
C           45.09       21.42       3.95        
N           43.96       21.45       4.81        
C           43.9        22.25       5.95        
C           48.45       25.62       7.23        
N           49.49       25.65       6.29        
C           49.58       24.92       5.08        
O           48.53       26.29       8.26        
O           50.51       25.3        4.38        
O           45.11       20.8        2.85        
O           42.96       22.11       6.69        
C           42.91       20.5        4.51        
C           50.88       26.06       6.66        
H           42.69       20.54       3.38        
H           42.01       20.79       5.08        
H           43.08465    19.51032    4.93207     
H           51.65       25.34       6.5         
H           50.92       26.13       7.68        
H           51.14194    27.07946    6.37682     
H           47.44       21.76       2.57        
H           46.33       25.35       8.67        
C           46.22       24.7        7.79        
C           45.03       23.11       6.37        
C           45.04       23.92       7.6         
C           51.41       22.7        1.22        
C           50.3        22.87       0.45        
S           51.04       22.64       2.87        
H           48.1        23.28       0.82        
H           50.32       22.94       -0.59       
C           49.15       23.12       1.22        
C           49.35       23.03       2.57        
C           55.2        21.99       0.78        
C           54.54       21.37       -0.31       
S           54.09       22.46       1.98        
H           52.43       21.24       -0.99       
H           55.05       20.97       -1.14       
C           53.16       21.55       -0.25       
C           52.75       22.33       0.84        
C           58.83       22.42       2.0         
C           58.86       22.52       0.61        
S           57.2        22.15       2.57        
H           57.42       22.31       -0.98       
H           59.72       22.82       0.03        
C           57.59       22.36       0.03        
C           56.63       22.15       0.96        
C           63.61       21.42       6.47        
C           63.43       20.88       5.19        
C           62.69       22.3        7.0         
C           62.32       21.38       4.42        
C           61.36       22.27       4.95        
C           62.12       21.03       3.04        
C           61.53       22.69       6.35        
C           60.6        23.55       7.05        
N           59.43       23.88       6.34        
C           59.31       23.63       4.92        
C           63.03       20.21       2.24        
N           64.08       19.73       2.97        
C           64.31       19.88       4.37        
O           62.85       20.15       1.06        
O           65.37       19.41       4.8         
O           60.86       23.88       8.18        
O           58.33       24.14       4.39        
C           58.15       24.4        6.92        
C           64.69       18.47       2.38        
H           57.34       23.8        6.56        
H           58.17       25.5        6.7         
H           58.03451    24.34947    8.00269     
H           65.73       18.33       2.71        
H           64.83       18.54       1.35        
H           64.15099    17.53198    2.513       
H           62.73       22.51       8.03        
H           60.9        21.12       1.33        
C           61.05       21.54       2.32        
C           60.25       22.74       4.21        
C           60.04       22.3        2.89        
C           66.7        20.46       8.87        
C           65.76       19.52       8.94        
S           66.14       21.74       7.78        
H           63.72       19.07       8.0         
H           65.8        18.66       9.61        
C           64.62       19.76       8.11        
C           64.64       20.96       7.4         
C           70.0        20.22       10.81       
C           69.9        21.46       10.24       
S           68.49       19.35       10.54       
H           68.51       22.55       8.83        
H           70.76       22.24       10.22       
C           68.75       21.68       9.42        
C           67.95       20.59       9.45        
C           73.21       19.18       12.71       
C           72.17       18.27       13.03       
S           72.67       20.31       11.58       
H           70.11       17.88       12.43       
H           72.33       17.46       13.7        
C           70.97       18.55       12.33       
C           71.07       19.65       11.57       
C           78.83       18.69       16.17       
C           77.51       18.89       16.52       
C           79.18       18.88       14.81       
C           76.52       19.11       15.63       
C           76.8        19.17       14.21       
C           75.16       19.22       15.89       
C           78.2        19.06       13.85       
C           78.63       19.15       12.45       
N           77.73       19.55       11.48       
C           76.34       19.52       11.74       
C           74.68       19.23       17.29       
N           75.7        18.95       18.25       
C           77.08       18.64       17.93       
O           73.48       19.17       17.61       
O           77.87       18.37       18.85       
O           79.84       19.0        12.19       
O           75.65       19.66       10.76       
C           78.26       19.83       10.16       
C           75.4        19.13       19.64       
H           77.49       19.91       9.38        
H           78.8        19.0        9.84        
H           78.88118    20.72565    10.15278    
H           75.86       18.28       20.21       
H           74.39       18.96       19.76       
H           75.74402    20.09755    20.00552    
H           80.17       19.1        14.55       
H           73.15       19.09       15.33       
C           74.19       19.13       14.93       
C           75.84       19.34       13.17       
C           74.44       19.26       13.53       
C           82.11       19.03       18.39       
C           82.24       18.04       17.44       
S           80.52       19.74       18.19       
H           81.1        17.14       15.72       
H           83.13       17.44       17.31       
C           81.11       17.85       16.53       
C           80.07       18.63       16.96       
C           85.31       19.92       20.23       
C           84.33       20.61       20.87       
S           84.72       18.93       18.95       
H           82.14       21.0        20.59       
H           84.63       21.25       21.67       
C           83.04       20.42       20.27       
C           83.17       19.5        19.24       
C           89.15       19.81       19.95       
C           88.87       19.94       21.3        
S           87.66       19.64       19.05       
H           87.04       20.02       22.56       
H           89.61       20.1        22.11       
C           87.46       20.01       21.57       
C           86.71       19.95       20.43       
C           95.58       20.14       18.38       
C           94.82       19.24       19.12       
C           94.93       21.01       17.57       
C           93.41       19.36       19.23       
C           92.73       20.32       18.46       
C           92.61       18.43       19.98       
C           93.53       21.21       17.66       
C           93.01       22.34       16.87       
N           91.69       22.62       17.2        
C           90.89       21.81       18.05       
C           93.27       17.26       20.58       
N           94.7        17.22       20.61       
C           95.5        18.2        19.99       
O           92.59       16.51       21.23       
O           96.73       18.1        20.15       
O           93.83       23.21       16.47       
O           89.71       22.05       18.19       
C           91.04       23.9        16.82       
C           95.29       16.23       21.54       
H           91.65       24.69       17.25       
H           90.06       24.05       17.23       
H           90.84834    23.94969    15.74813    
H           96.16       15.8        21.06       
H           94.54       15.47       21.63       
H           95.59988    16.63143    22.50485    
H           95.54       21.79       17.13       
H           90.67       17.95       20.74       
C           91.25       18.68       20.16       
C           91.38       20.56       18.7        
C           90.57       19.72       19.5        
C           99.37       21.21       18.38       
C           99.23       20.02       17.68       
S           97.83       21.69       19.05       
H           97.51       18.69       16.89       
H           100.08      19.41       17.32       
C           97.86       19.55       17.47       
C           97.02       20.39       18.17       
C           102.0       23.61       19.86       
C           102.6       23.12       18.74       
S           100.33      23.12       20.09       
H           102.05      21.47       17.24       
H           103.6       23.38       18.45       
C           101.75      22.11       18.14       
C           100.48      22.0        18.75       
C           103.75      26.44       21.94       
C           102.78      25.82       22.68       
S           103.73      25.73       20.37       
H           101.41      24.0        22.5        
H           102.55      26.17       23.68       
C           102.11      24.68       22.02       
C           102.5       24.56       20.76       
C           105.71      32.42       24.22       
C           106.19      31.16       24.39       
C           104.58      32.57       23.43       
C           105.59      30.08       23.72       
C           104.44      30.18       22.89       
C           106.14      28.75       23.74       
C           103.96      31.55       22.73       
C           102.86      31.93       21.82       
N           102.19      30.93       21.15       
C           102.57      29.51       21.39       
C           107.36      28.47       24.56       
N           107.83      29.56       25.24       
C           107.39      30.86       25.28       
O           107.7       27.33       24.7        
O           108.0       31.65       25.93       
O           102.6       33.1        21.6        
O           102.0       28.63       20.69       
C           101.41      31.2        19.96       
C           109.24      29.33       25.69       
H           101.17      30.26       19.43       
H           101.9       31.77       19.17       
H           100.45773   31.5571     20.35211    
H           109.72      30.28       25.53       
H           109.73      28.71       24.95       
H           109.37443   29.03284    26.73006    
H           104.14      33.49       23.42       
H           105.9       26.67       23.32       
C           105.52      27.67       23.11       
C           103.79      29.11       22.22       
C           104.35      27.73       22.29       
C           106.23      36.07       25.84       
C           106.3       35.12       26.82       
S           105.75      35.3        24.33       
H           106.17      32.94       26.94       
H           106.44      35.38       27.91       
C           106.12      33.81       26.32       
C           105.84      33.7        25.0        
C           106.99      39.8        26.58       
C           106.63      39.71       25.26       
S           107.07      38.22       27.31       
H           105.89      38.09       23.88       
H           106.54      40.56       24.6        
C           106.29      38.39       24.87       
C           106.42      37.45       25.89       
C           107.99      42.4        29.29       
C           107.98      43.04       28.1        
S           107.51      40.75       29.07       
H           107.46      42.55       25.97       
H           108.39      43.99       27.95       
C           107.52      42.28       27.02       
C           107.3       40.97       27.37       
C           110.87      44.93       34.6        
C           109.69      44.27       34.37       
C           111.8       45.03       33.52       
C           109.32      43.82       33.12       
C           110.25      43.94       32.05       
C           108.03      43.29       32.81       
C           111.51      44.48       32.27       
C           112.51      44.76       31.22       
N           112.08      44.51       29.89       
C           110.87      43.88       29.6        
C           106.96      43.16       33.81       
N           107.42      43.47       35.1        
C           108.65      43.99       35.48       
O           105.84      42.7        33.59       
O           108.95      43.95       36.65       
O           113.58      45.3        31.49       
O           110.77      43.56       28.48       
C           112.94      45.08       28.8        
C           106.57      42.85       36.18       
H           112.64      44.56       27.9        
H           114.04      44.87       28.93       
H           112.72019   46.14362    28.70782    
H           107.3       42.36       36.83       
H           105.94      42.05       35.8        
H           105.95153   43.56196    36.72655    
H           112.69      45.64       33.64       
H           106.73      42.37       31.37       
C           107.75      42.84       31.5        
C           109.85      43.6        30.7        
C           108.6       42.99       30.45       
C           111.68      47.34       37.71       
C           112.69      46.55       37.54       
S           110.4       46.93       36.64       
H           113.37      44.93       36.14       
H           113.6       46.6        38.14       
C           112.55      45.66       36.39       
C           111.32      45.71       35.79       
C           112.26      50.15       40.19       
C           111.44      50.63       39.26       
S           112.48      48.48       40.1        
H           110.43      49.89       37.38       
H           111.22      51.69       39.16       
C           111.01      49.66       38.32       
C           111.58      48.46       38.58       
C           114.43      52.34       42.61       
C           113.95      51.31       43.34       
S           113.71      52.29       41.05       
H           112.68      49.47       43.12       
H           114.15      51.22       44.37       
C           113.11      50.38       42.65       
C           112.8       50.85       41.36       
C           118.23      57.47       44.52       
C           116.84      57.35       44.22       
C           119.01      56.28       44.5        
C           116.3       56.06       43.82       
C           117.09      54.88       43.84       
C           114.97      55.82       43.44       
C           118.49      55.08       44.17       
C           119.4       53.92       44.29       
N           118.81      52.68       44.03       
C           117.55      52.45       43.48       
C           114.02      56.92       43.46       
N           114.48      58.21       43.94       
C           115.86      58.46       44.39       
O           112.76      56.65       43.21       
O           116.08      59.55       44.89       
O           120.61      54.06       44.49       
O           117.25      51.32       43.12       
C           119.69      51.51       44.18       
C           113.41      59.17       44.19       
H           120.66      51.69       43.76       
H           119.36      50.66       43.6        
H           119.92137   51.21553    45.20365    
H           113.45      59.4        45.18       
H           112.52      58.65       44.13       
H           113.38879   60.01124    43.49721    
H           120.09      56.35       44.68       
H           113.52      54.51       42.86       
C           114.51      54.6        43.15       
C           116.62      53.65       43.38       
C           115.28      53.43       43.1        
C           120.07      60.27       46.51       
C           120.89      59.9        45.48       
S           118.58      59.44       46.54       
H           120.69      58.52       43.8        
H           121.89      60.26       45.39       
C           120.21      58.92       44.69       
C           118.94      58.59       45.05       
C           121.47      62.9        49.07       
C           120.4       62.29       49.67       
S           121.77      62.27       47.5        
H           119.08      60.49       49.26       
H           119.98      62.59       50.66       
C           119.88      61.21       48.89       
C           120.45      61.16       47.63       
H           72.46       31.62       39.32       
H           121.58      63.95       49.36       
