512

C           67.52       42.35       42.29       
C           67.73       42.0        43.62       
S           68.83       43.39       41.95       
H           68.74       42.58       45.47       
H           67.18       41.21       44.07       
C           68.61       42.77       44.38       
C           69.49       43.43       43.52       
C           63.36       38.11       39.34       
C           64.77       38.36       39.3        
C           62.68       38.96       40.19       
C           65.38       39.42       40.08       
C           64.6        40.31       40.81       
C           66.71       39.66       39.92       
C           63.22       40.03       40.87       
C           62.25       40.94       41.59       
N           62.86       41.89       42.48       
C           64.28       42.16       42.44       
C           67.66       38.84       39.06       
N           67.08       37.8        38.34       
C           65.66       37.62       38.28       
O           68.9        38.94       39.13       
O           65.29       36.71       37.54       
O           61.0        40.83       41.49       
O           64.64       43.13       43.05       
C           61.97       42.67       43.36       
C           67.95       37.25       37.24       
H           62.43       43.57       43.8        
H           61.11       42.87       42.77       
H           61.63566    42.08491    44.21673    
H           67.57       36.29       37.04       
H           68.87       37.06       37.73       
H           68.08414    37.91362    36.38577    
H           61.62       38.79       40.22       
H           68.41       40.71       40.69       
C           67.33       40.62       40.7        
C           65.21       41.37       41.5        
C           66.63       41.59       41.41       
C           60.9        36.59       36.55       
C           60.47       36.08       37.69       
S           62.28       37.5        36.8        
H           61.1        36.44       39.84       
H           59.53       35.53       37.89       
C           61.28       36.56       38.81       
C           62.41       37.28       38.48       
C           59.16       35.58       33.21       
C           60.34       36.24       32.9        
S           59.08       35.23       34.91       
H           61.89       37.37       34.09       
H           60.59       36.47       31.92       
C           60.98       36.76       34.02       
C           60.42       36.29       35.16       
C           56.4        35.06       30.56       
C           56.2        34.11       31.43       
S           57.7        36.1        30.98       
H           57.2        33.44       33.3        
H           55.42       33.34       31.42       
C           57.2        34.16       32.53       
C           58.05       35.18       32.41       
C           52.61       36.34       25.48       
C           52.33       36.1        26.79       
C           53.85       36.11       24.95       
C           53.38       35.82       27.67       
C           54.72       35.53       27.16       
C           53.21       35.89       29.07       
C           54.87       35.7        25.78       
C           56.21       35.41       25.16       
N           57.29       35.23       26.0        
C           57.17       35.01       27.42       
C           51.92       36.19       29.74       
N           50.95       36.42       28.8        
C           51.09       36.35       27.43       
O           51.77       36.36       30.9        
O           50.1        36.8        26.88       
O           56.46       35.49       24.02       
O           58.19       34.89       28.11       
C           58.61       35.09       25.37       
C           49.54       36.62       29.41       
H           58.56       34.55       24.46       
H           59.24       34.49       26.04       
H           59.07202    36.07004    25.251      
H           49.08       37.42       28.98       
H           49.67       36.84       30.49       
H           48.95864    35.7196     29.21149    
H           54.05       36.4        23.95       
H           54.03       35.45       30.88       
C           54.28       35.56       29.87       
C           55.79       35.23       28.03       
C           55.54       35.24       29.42       
C           50.18       37.7        22.6        
C           50.95       36.61       22.19       
S           50.78       38.21       24.11       
H           52.33       35.12       23.15       
H           50.76       36.1        21.23       
C           51.7        36.03       23.25       
C           51.67       36.72       24.41       
C           47.09       38.89       20.36       
C           47.15       39.71       21.45       
S           48.22       37.6        20.64       
H           48.41       39.84       23.32       
H           46.32       40.35       21.69       
C           48.26       39.38       22.36       
C           49.04       38.35       21.98       
C           43.95       38.91       17.88       
C           45.13       38.81       17.2        
S           44.36       38.96       19.57       
H           47.34       38.53       17.53       
H           45.0        38.75       16.12       
C           46.3        38.57       17.94       
C           46.08       38.77       19.29       
C           38.67       37.55       14.14       
C           39.29       36.85       15.19       
C           39.18       38.79       13.75       
C           40.39       37.43       15.82       
C           40.9        38.68       15.49       
C           41.02       36.83       16.96       
C           40.22       39.37       14.46       
C           40.68       40.69       13.94       
N           41.86       41.22       14.52       
C           42.4        40.62       15.67       
C           40.71       35.43       17.33       
N           39.64       34.85       16.51       
C           38.88       35.48       15.59       
O           41.24       34.87       18.29       
O           37.89       34.87       15.16       
O           39.98       41.21       13.06       
O           43.3        41.19       16.16       
C           41.97       42.71       14.4        
C           39.18       33.44       16.87       
H           42.43       43.2        15.28       
H           40.91       43.11       14.27       
H           42.47731    42.95263    13.46626    
H           38.12       33.39       17.1        
H           39.74       33.14       17.76       
H           39.39562    32.6494     16.15128    
H           38.83       39.22       12.8        
H           42.59       36.81       18.27       
C           42.12       37.39       17.52       
C           42.01       39.29       16.15       
C           42.68       38.63       17.21       
C           36.61       36.09       11.15       
C           35.69       36.83       11.91       
S           38.18       36.03       11.83       
H           35.96       38.24       13.61       
H           34.66       36.88       11.73       
C           36.44       37.52       12.93       
C           37.71       37.04       13.11       
C           36.52       33.25       8.37        
C           35.4        34.01       8.25        
S           37.5        33.97       9.69        
H           34.4        35.6        9.26        
H           34.71       33.83       7.38        
C           35.31       35.04       9.24        
C           36.34       35.15       10.05       
C           38.74       30.68       6.32        
C           37.42       30.59       5.89        
S           38.79       31.93       7.56        
H           35.43       31.49       6.41        
H           37.09       29.84       5.22        
C           36.5        31.43       6.6         
C           37.1        32.22       7.58        
C           44.31       27.23       6.25        
C           44.05       28.5        5.74        
C           43.26       26.35       6.43        
C           42.68       28.92       5.78        
C           41.57       28.04       6.11        
C           42.29       30.24       5.45        
C           41.93       26.71       6.41        
C           40.94       25.71       6.91        
N           39.65       26.19       7.05        
C           39.24       27.47       6.72        
C           43.27       31.31       5.21        
N           44.63       30.89       5.17        
C           45.06       29.53       5.4         
O           42.94       32.42       4.77        
O           46.26       29.3        5.42        
O           41.26       24.55       7.03        
O           38.07       27.8        6.81        
C           38.57       25.15       6.95        
C           45.73       31.84       4.93        
H           38.83       24.63       6.06        
H           37.54       25.44       6.69        
H           38.57737    24.4055     7.7461      
H           46.48       31.74       5.7         
H           45.31       32.76       5.1         
H           46.1319     31.78457    3.91832     
H           43.4        25.32       6.77        
H           40.74       31.61       5.17        
C           40.95       30.58       5.42        
C           40.25       28.47       6.3         
C           39.92       29.8        6.03        
C           47.88       25.52       6.55        
C           47.45       25.85       7.77        
S           46.79       26.09       5.31        
H           45.62       26.68       8.58        
H           47.91       25.57       8.71        
C           46.16       26.39       7.7         
C           45.7        26.7        6.49        
C           51.63       24.8        6.24        
C           51.14       24.54       4.98        
S           50.46       25.31       7.37        
H           49.06       24.45       4.06        
H           51.78       24.27       4.13        
C           49.69       24.67       4.99        
C           49.14       25.04       6.2         
C           55.42       24.23       6.83        
C           55.0        25.22       7.62        
S           54.07       23.63       5.91        
H           53.16       26.3        8.21        
H           55.7        25.89       8.09        
C           53.64       25.6        7.56        
C           53.02       24.84       6.63        
C           61.77       23.22       5.4         
C           61.01       24.38       5.36        
C           61.15       22.0        5.82        
C           59.63       24.25       5.69        
C           59.01       23.05       6.09        
C           58.8        25.42       5.69        
C           59.81       21.95       6.08        
C           59.33       20.56       6.37        
N           57.96       20.51       6.77        
C           57.08       21.59       6.7         
C           59.27       26.78       5.26        
N           60.61       26.82       4.88        
C           61.53       25.73       4.95        
O           58.54       27.77       5.18        
O           62.67       25.94       4.55        
O           60.08       19.56       6.51        
O           55.92       21.3        6.77        
C           57.54       19.42       7.69        
C           61.13       28.12       4.31        
H           56.55       19.62       8.1         
H           58.22       19.47       8.58        
H           57.47597    18.44534    7.20623     
H           62.18       28.21       4.62        
H           60.76       28.98       4.81        
H           60.99751    28.16881    3.22918     
H           61.77       21.13       6.02        
H           56.88       26.14       6.07        
C           57.48       25.3        6.12        
C           57.6        22.95       6.37        
C           56.85       24.11       6.51        
C           65.48       22.15       4.86        
C           65.48       23.34       5.56        
S           63.92       21.5        4.7         
H           63.93       24.74       6.2         
H           66.33       23.91       5.84        
C           64.15       23.83       5.72        
C           63.19       22.89       5.45        
C           68.79       20.07       4.38        
C           67.82       19.54       3.61        
S           68.12       21.39       5.29        
H           65.73       19.94       3.11        
H           67.96       18.68       3.02        
C           66.6        20.23       3.64        
C           66.57       21.36       4.48        
C           71.68       18.73       6.46        
C           71.9        18.34       5.15        
S           70.2        19.66       6.51        
H           71.08       18.61       3.15        
H           72.69       17.6        4.94        
C           71.03       18.85       4.21        
C           70.07       19.6        4.76        
C           75.7        18.58       11.75       
C           75.87       18.78       10.4        
C           74.39       18.36       12.09       
C           74.76       18.64       9.47        
C           73.39       18.47       9.91        
C           74.96       18.84       8.1         
C           73.25       18.35       11.25       
C           71.89       18.12       11.86       
N           70.78       18.01       10.92       
C           70.99       18.2        9.55        
C           76.26       19.14       7.5         
N           77.31       19.26       8.43        
C           77.15       19.22       9.82        
O           76.47       19.03       6.24        
O           78.09       19.38       10.56       
O           71.73       18.13       13.09       
O           69.97       18.04       8.88        
C           69.46       18.25       11.48       
C           78.56       19.88       7.95        
H           68.85       18.82       10.81       
H           69.51       18.9        12.35       
H           69.01905    17.31027    11.81252    
H           78.69       20.77       8.41        
H           78.38       20.13       6.9         
H           79.45134    19.26024    8.04749     
H           74.14       18.27       13.14       
H           74.2        19.03       6.22        
C           73.88       18.83       7.24        
C           72.35       18.36       8.96        
C           72.59       18.48       7.57        
C           78.07       19.23       14.84       
C           77.49       18.01       15.01       
S           77.56       19.96       13.39       
H           76.06       16.78       13.84       
H           77.6        17.41       15.94       
C           76.64       17.72       13.89       
C           76.52       18.68       12.96       
C           80.67       21.58       16.61       
C           81.09       20.26       16.84       
S           79.17       21.62       15.74       
H           80.31       18.29       16.32       
H           82.04       19.98       17.32       
C           80.13       19.33       16.35       
C           79.04       19.88       15.72       
C           83.45       24.33       17.05       
C           82.21       24.89       17.28       
S           83.21       22.62       16.77       
H           80.08       24.27       17.25       
H           82.16       25.86       17.7        
C           81.09       23.99       17.07       
C           81.48       22.78       16.74       
C           89.28       26.93       18.79       
C           88.81       26.27       17.61       
C           88.33       27.21       19.68       
C           87.39       25.94       17.52       
C           86.44       26.19       18.57       
C           86.85       25.28       16.38       
C           86.99       26.92       19.66       
C           86.21       27.46       20.73       
N           84.92       26.86       20.83       
C           84.34       25.99       19.83       
C           87.57       25.09       15.12       
N           88.94       25.3        15.28       
C           89.62       25.85       16.39       
O           87.08       24.64       14.05       
O           90.87       25.82       16.27       
O           86.8        28.02       21.64       
O           83.23       25.66       20.0        
C           84.32       26.92       22.16       
C           89.82       24.43       14.43       
H           85.08       26.91       22.93       
H           83.77       26.01       22.33       
H           83.76583    27.84121    22.33992    
H           90.74       24.99       14.13       
H           89.3        24.3        13.52       
H           90.05113    23.44243    14.82923    
H           88.77       27.73       20.52       
H           85.4        24.15       15.52       
C           85.56       24.83       16.34       
C           85.08       25.76       18.56       
C           84.73       24.94       17.44       
C           92.75       27.86       20.51       
C           92.86       28.2        19.19       
S           91.16       27.42       20.95       
H           91.48       28.3        17.48       
H           93.71       28.63       18.73       
C           91.59       28.03       18.55       
C           90.57       27.5        19.26       
C           96.12       28.21       22.54       
C           95.06       28.05       23.4        
S           95.39       28.27       20.98       
H           92.89       27.67       23.45       
H           95.12       27.97       24.43       
C           93.8        27.82       22.8        
C           93.77       27.87       21.47       
C           99.6        29.79       23.29       
C           99.76       28.95       22.22       
S           97.96       29.65       23.86       
H           98.49       27.58       20.98       
H           100.71      28.84       21.67       
C           98.54       28.23       21.84       
C           97.55       28.52       22.69       
C           104.37      34.01       24.9        
C           104.17      32.68       25.29       
C           103.5       34.56       24.01       
C           102.99      32.04       24.8        
C           102.11      32.66       23.85       
C           102.64      30.7        25.14       
C           102.36      34.03       23.55       
C           101.53      34.77       22.61       
N           100.47      34.1        22.0        
C           100.13      32.76       22.36       
C           103.52      29.91       26.0        
N           104.76      30.5        26.44       
C           105.05      31.87       26.15       
O           103.22      28.68       26.15       
O           106.04      32.47       26.62       
O           101.92      35.89       22.18       
O           99.09       32.29       21.76       
C           99.4        34.9        21.41       
C           105.66      29.74       27.3        
H           99.17       35.77       22.06       
H           98.46       34.35       21.42       
H           99.65459    35.21652    20.39852    
H           106.66      30.19       27.42       
H           105.75      28.83       26.8        
H           105.2339    29.57389    28.28942    
H           103.73      35.51       23.57       
H           101.42      28.96       24.8        
C           101.56      30.05       24.55       
C           100.96      32.0        23.35       
C           100.65      30.69       23.71       
C           107.51      36.47       25.35       
C           107.52      35.89       24.14       
S           106.24      35.75       26.35       
H           106.16      34.56       22.88       
H           108.36      36.0        23.44       
C           106.37      35.05       23.82       
C           105.59      34.87       24.94       
C           110.73      38.28       26.59       
C           109.69      38.94       27.15       
S           110.2       36.95       25.63       
H           107.52      38.79       27.29       
H           109.79      39.75       27.82       
C           108.44      38.41       26.89       
C           108.51      37.37       25.95       
C           114.39      39.65       27.36       
C           114.48      38.42       26.82       
S           112.71      40.03       27.57       
H           113.14      36.77       26.1        
H           115.45      37.89       26.8        
C           113.24      37.75       26.45       
C           112.18      38.53       26.81       
C           119.65      43.04       29.51       
C           119.29      42.55       28.28       
C           118.77      42.82       30.5        
C           118.04      41.81       28.14       
C           117.21      41.55       29.25       
C           117.69      41.31       26.88       
C           117.59      42.09       30.42       
C           116.75      42.0        31.63       
N           115.51      41.42       31.55       
C           115.02      40.9        30.28       
C           118.48      41.53       25.64       
N           119.67      42.18       25.89       
C           120.18      42.66       27.13       
O           118.11      41.28       24.5        
O           121.33      43.14       27.26       
O           117.32      42.15       32.74       
O           113.87      40.36       30.35       
C           114.74      41.03       32.75       
C           120.44      42.65       24.68       
H           115.44      40.39       33.34       
H           113.91      40.44       32.58       
H           114.46697   41.87861    33.37723    
H           120.88      43.63       24.93       
H           119.77      42.91       23.73       
H           121.27267   41.9911     24.43382    
H           118.93      43.26       31.42       
H           116.39      40.18       25.83       
C           116.62      40.6        26.76       
C           115.95      40.84       29.1        
C           115.65      40.36       27.81       
C           122.29      45.63       30.91       
C           121.51      46.24       29.95       
S           121.61      44.09       31.26       
H           119.94      45.67       28.37       
H           121.51      47.33       29.79       
C           120.65      45.37       29.21       
C           120.55      44.15       29.88       
C           124.08      47.51       33.88       
C           124.92      46.52       33.4        
S           122.64      47.5        32.87       
H           125.01      44.99       31.87       
H           125.91      46.39       33.78       
C           124.4       45.8        32.27       
C           123.17      46.2        31.85       
C           125.4       49.65       36.91       
C           124.09      49.98       36.67       
S           125.82      48.26       35.82       
H           122.49      49.5        35.17       
H           123.55      50.68       37.31       
C           123.5       49.39       35.5        
C           124.35      48.42       34.96       
C           129.96      52.39       40.88       
C           128.99      52.95       40.04       
C           130.09      51.01       40.88       
C           128.12      52.01       39.34       
C           128.18      50.6        39.47       
C           127.31      52.43       38.3        
C           129.27      50.11       40.23       
C           129.66      48.72       40.34       
N           128.68      47.88       39.75       
C           127.51      48.25       39.01       
C           127.18      53.89       37.93       
N           127.92      54.82       38.65       
C           128.73      54.38       39.73       
O           126.45      54.34       37.02       
O           129.27      55.32       40.3        
O           130.66      48.33       40.86       
O           126.77      47.37       38.62       
C           129.27      46.64       39.23       
C           128.14      56.11       38.03       
H           130.23      46.88       38.73       
H           128.76      46.22       38.36       
H           129.41078   45.88244    40.00097    
H           128.48      56.73       38.76       
H           127.17      56.56       37.73       
H           128.92106   56.1384     37.27024    
H           130.97      50.57       41.33       
H           125.67      51.96       36.98       
C           126.39      51.56       37.67       
C           127.27      49.71       38.84       
C           126.26      50.22       37.94       
C           133.13      54.27       42.5        
C           132.55      53.47       43.43       
S           132.25      54.08       41.02       
H           130.72      52.14       43.56       
H           132.79      53.43       44.48       
C           131.4       52.75       42.94       
C           131.07      53.02       41.65       
C           136.42      56.38       41.96       
C           136.26      56.04       43.27       
S           134.98      55.81       41.1        
H           134.81      55.03       44.62       
H           137.04      56.29       43.96       
C           135.04      55.4        43.62       
C           134.25      55.14       42.52       
H           70.6        43.39       43.64       
H           137.3       56.98       41.62       
