512

C           71.07       35.79       29.51       
C           71.97       36.77       29.54       
S           71.49       34.7        28.24       
H           73.77       37.34       28.47       
H           71.92       37.64       30.19       
C           73.03       36.56       28.65       
C           72.9        35.54       27.77       
C           65.55       36.09       33.21       
C           66.23       37.0        32.33       
C           66.19       34.77       33.38       
C           67.46       36.64       31.71       
C           68.02       35.34       31.9        
C           68.12       37.51       30.87       
C           67.33       34.45       32.74       
C           67.65       32.96       32.8        
N           68.85       32.62       32.04       
C           69.61       33.52       31.25       
C           67.62       38.88       30.64       
N           66.37       39.28       31.24       
C           65.62       38.3        32.06       
O           68.1        39.64       29.75       
O           64.64       38.72       32.7        
O           67.09       32.15       33.58       
O           70.66       33.15       30.65       
C           69.47       31.28       32.19       
C           66.24       40.67       31.61       
H           70.53       31.38       32.1        
H           69.24       30.89       33.18       
H           69.05141    30.57537    31.47141    
H           65.11       40.87       31.61       
H           66.72       41.28       30.79       
H           66.62614    41.03545    32.56155    
H           65.73       34.06       34.02       
H           69.74       38.0        29.7        
C           69.28       37.2        30.28       
C           69.22       34.98       31.21       
C           69.84       35.95       30.36       
C           61.68       36.07       34.25       
C           62.42       35.93       35.41       
S           62.71       36.29       32.87       
H           64.65       35.8        35.83       
H           62.05       35.8        36.37       
C           63.85       35.94       35.11       
C           64.18       36.11       33.81       
C           57.94       36.44       33.19       
C           57.94       36.08       34.51       
S           59.53       36.65       32.49       
H           59.69       35.75       36.03       
H           57.11       35.93       35.15       
C           59.31       35.95       35.01       
C           60.21       36.13       34.01       
C           55.53       36.42       30.0        
C           54.78       36.46       31.18       
S           57.15       36.53       30.54       
H           55.09       36.17       33.4        
H           53.71       36.64       31.14       
C           55.52       36.27       32.39       
C           56.87       36.4        32.22       
C           52.88       37.78       23.89       
C           52.57       38.14       25.25       
C           53.91       36.92       23.81       
C           53.36       37.75       26.36       
C           54.41       36.84       26.22       
C           53.05       38.13       27.68       
C           54.71       36.39       24.89       
C           55.72       35.35       24.59       
N           56.33       34.77       25.72       
C           56.07       35.16       27.06       
C           51.97       39.07       27.92       
N           51.16       39.45       26.84       
C           51.46       39.08       25.51       
O           51.67       39.44       29.06       
O           50.82       39.52       24.62       
O           55.95       34.99       23.44       
O           56.69       34.64       27.91       
C           56.79       33.37       25.58       
C           50.5        40.77       26.93       
H           56.06       32.89       24.78       
H           56.69       32.91       26.54       
H           57.82927    33.26811    25.26754    
H           50.38       41.18       25.94       
H           51.2        41.31       27.55       
H           49.49415    40.75553    27.34971    
H           54.18       36.43       22.91       
H           53.65       38.13       29.71       
C           53.88       37.72       28.73       
C           55.18       36.32       27.37       
C           54.82       36.68       28.66       
C           50.85       37.58       20.47       
C           52.09       38.1        20.21       
S           50.67       37.31       22.15       
H           53.9        38.45       21.33       
H           52.4        38.44       19.28       
C           52.89       38.21       21.38       
C           52.25       37.89       22.57       
C           48.34       36.78       17.51       
C           47.76       36.32       18.69       
S           49.91       37.47       17.86       
H           48.32       36.16       20.87       
H           46.78       35.9        18.7        
C           48.57       36.52       19.87       
C           49.77       37.21       19.58       
C           46.4        36.2        14.21       
C           47.7        36.51       13.94       
S           46.22       36.44       15.88       
H           49.57       37.22       14.94       
H           48.14       36.55       12.93       
C           48.53       36.96       15.02       
C           47.84       36.83       16.17       
C           41.88       34.39       9.63        
C           42.3        33.91       10.85       
C           42.57       35.52       9.16        
C           43.35       34.51       11.56       
C           43.94       35.72       11.15       
C           43.69       34.02       12.79       
C           43.47       36.22       9.89        
C           43.87       37.58       9.38        
N           44.95       38.2        10.13       
C           45.41       37.63       11.39       
C           43.21       32.75       13.33       
N           42.12       32.17       12.66       
C           41.63       32.68       11.45       
O           43.61       32.43       14.47       
O           40.66       32.09       10.98       
O           43.41       38.08       8.35        
O           46.3        38.22       11.98       
C           45.02       39.66       10.03       
C           41.43       31.0        13.09       
H           45.45       40.2        10.92       
H           44.03       39.99       9.92        
H           45.46912    40.05209    9.1175      
H           40.35       30.98       12.79       
H           41.38       31.1        14.19       
H           41.88698    30.07868    12.72884    
H           42.37       35.87       8.16        
H           44.91       34.23       14.46       
C           44.66       34.7        13.53       
C           44.97       36.32       11.9        
C           45.39       35.87       13.12       
C           39.89       32.23       7.06        
C           39.21       33.42       7.24        
S           41.32       32.21       8.01        
H           39.56       35.24       8.46        
H           38.24       33.61       6.75        
C           39.91       34.27       8.15        
C           40.98       33.73       8.7         
C           39.57       29.4        4.44        
C           38.33       29.75       4.83        
S           40.8        30.16       5.38        
H           37.5        31.33       6.08        
H           37.42       29.31       4.41        
C           38.37       30.81       5.77        
C           39.61       31.17       6.15        
C           41.04       26.91       1.82        
C           39.69       27.0        1.65        
S           41.42       27.85       3.19        
H           38.0        28.23       2.29        
H           39.21       26.38       0.9         
C           39.02       27.96       2.47        
C           39.84       28.48       3.41        
C           45.45       23.37       -1.67       
C           44.38       24.27       -1.93       
C           45.6        23.17       -0.25       
C           43.59       24.89       -0.93       
C           43.8        24.63       0.44        
C           42.58       25.77       -1.23       
C           44.87       23.78       0.73        
C           45.13       23.36       2.14        
N           44.18       23.76       3.14        
C           43.21       24.7        2.81        
C           42.3        26.24       -2.58       
N           43.04       25.64       -3.59       
C           44.09       24.7        -3.33       
O           41.33       26.94       -2.79       
O           44.7        24.3        -4.26       
O           46.0        22.52       2.37        
O           42.58       24.92       3.82        
C           44.79       23.64       4.51        
C           43.16       26.37       -4.88       
H           44.44       24.44       5.23        
H           45.86       23.84       4.38        
H           44.64215    22.64025    4.91835     
H           44.22       26.61       -5.09       
H           42.62       27.29       -4.84       
H           42.6931     25.82529    -5.70061    
H           46.44       22.49       0.04        
H           40.81       26.73       -0.64       
C           41.76       26.28       -0.26       
C           43.02       25.27       1.43        
C           41.92       26.07       1.07        
C           48.62       21.79       -3.39       
C           47.58       21.4        -4.15       
S           48.15       22.57       -1.92       
H           45.32       21.6        -3.87       
H           47.73       20.82       -5.02       
C           46.32       21.82       -3.54       
C           46.5        22.63       -2.49       
C           52.43       22.17       -3.78       
C           52.04       21.24       -4.67       
S           51.11       22.72       -2.78       
H           50.1        20.34       -5.3        
H           52.68       20.87       -5.46       
C           50.63       21.05       -4.63       
C           50.0        21.66       -3.63       
C           55.66       24.3        -3.02       
C           55.58       24.16       -4.39       
S           54.3        23.55       -2.25       
H           54.26       23.12       -5.86       
H           56.27       24.46       -5.13       
C           54.45       23.36       -4.77       
C           53.68       22.85       -3.69       
C           60.38       28.6        -1.21       
C           59.0        28.44       -0.91       
C           60.93       27.49       -1.84       
C           58.24       27.23       -1.26       
C           58.9        26.19       -1.99       
C           56.88       27.0        -0.85       
C           60.31       26.36       -2.22       
C           61.1        25.39       -3.0        
N           60.28       24.27       -3.38       
C           58.89       24.1        -3.22       
C           56.19       27.96       0.02        
N           56.93       29.04       0.42        
C           58.22       29.4        -0.07       
O           55.06       27.81       0.43        
O           58.7        30.39       0.45        
O           62.27       25.54       -3.16       
O           58.42       23.11       -3.7        
C           60.9        23.54       -4.52       
C           56.51       29.71       1.66        
H           61.22       24.15       -5.3        
H           60.16       22.86       -4.89       
H           61.78799    22.97761    -4.2314     
H           57.35       29.71       2.37        
H           55.73       29.16       2.13        
H           56.08446    30.70059    1.49955     
H           62.04       27.6        -2.1        
H           55.07       25.89       -1.19       
C           56.18       25.92       -1.4        
C           58.1        25.13       -2.54       
C           56.7        25.05       -2.35       
C           63.39       31.0        -0.72       
C           62.4        31.72       -1.15       
S           63.02       29.33       -0.41       
H           60.21       31.36       -1.41       
H           62.51       32.77       -1.42       
C           61.19       30.96       -1.16       
C           61.4        29.67       -0.92       
C           67.0        32.32       0.39        
C           66.66       32.89       -0.75       
S           65.77       31.1        0.79        
H           64.82       32.88       -2.14       
H           67.36       33.56       -1.19       
C           65.38       32.49       -1.29       
C           64.79       31.47       -0.58       
C           69.68       32.78       3.2         
C           70.23       33.02       1.98        
S           68.04       32.32       2.92        
H           69.59       33.19       -0.15       
H           71.29       33.33       1.84        
C           69.31       32.96       0.86        
C           68.1        32.51       1.22        
C           73.48       33.36       8.5         
C           73.0        34.27       7.5         
C           72.93       32.03       8.48        
C           72.15       33.8        6.45        
C           71.56       32.5        6.49        
C           71.78       34.69       5.43        
C           71.92       31.64       7.55        
C           71.32       30.31       7.75        
N           70.4        29.95       6.74        
C           70.08       30.76       5.66        
C           72.28       36.05       5.29        
N           73.01       36.47       6.44        
C           73.43       35.65       7.5         
O           71.99       36.81       4.4         
O           74.16       36.13       8.4         
O           71.61       29.58       8.68        
O           69.22       30.31       4.93        
C           69.96       28.54       6.79        
C           73.62       37.82       6.41        
H           70.84       27.92       7.03        
H           69.63       28.28       5.81        
H           69.12327    28.28414    7.44002     
H           73.76       38.12       7.4         
H           72.79       38.5        6.11        
H           74.4969     37.89072    5.76647     
H           73.19       31.29       9.16        
H           70.83       34.89       3.57        
C           70.96       34.23       4.44        
C           70.72       32.11       5.45        
C           70.46       32.96       4.41        
C           76.46       33.73       10.98       
C           75.4        33.3        11.66       
S           76.12       33.9        9.26        
H           73.35       32.85       11.24       
H           75.44       33.0        12.72       
C           74.24       33.24       10.85       
C           74.48       33.58       9.54        
C           79.91       34.72       12.5        
C           80.04       34.54       11.19       
S           78.29       34.28       13.06       
H           78.68       34.18       9.48        
H           81.01       34.65       10.75       
C           78.8        34.31       10.54       
C           77.8        34.07       11.39       
C           83.12       35.39       14.44       
C           82.17       35.27       15.4        
S           82.46       35.19       12.88       
H           79.92       34.98       15.35       
H           82.36       35.36       16.46       
C           80.85       35.12       14.79       
C           80.92       34.98       13.48       
C           89.71       35.15       15.31       
C           88.58       34.57       15.95       
C           89.41       35.96       14.22       
C           87.26       34.83       15.52       
C           86.93       35.76       14.47       
C           86.14       34.24       16.2        
C           88.09       36.3        13.88       
C           87.97       37.23       12.74       
N           86.63       37.77       12.49       
C           85.46       37.2        13.05       
C           86.33       33.33       17.3        
N           87.61       33.07       17.7        
C           88.7        33.54       17.04       
O           85.33       32.93       17.98       
O           89.76       33.02       17.37       
O           88.92       37.75       12.16       
O           84.35       37.67       12.78       
C           86.53       38.69       11.32       
C           87.85       32.7        19.11       
H           85.49       38.88       11.11       
H           86.81       38.11       10.39       
H           86.9454     39.68113    11.50219    
H           88.66       32.05       19.06       
H           86.99       32.26       19.54       
H           88.06219    33.62191    19.65144    
H           90.16       36.47       13.68       
H           84.09       34.12       16.41       
C           84.9        34.54       15.75       
C           85.62       36.05       14.02       
C           84.54       35.42       14.7        
C           93.18       35.9        17.05       
C           93.46       35.55       15.79       
S           91.53       35.78       17.37       
H           92.15       35.21       13.96       
H           94.43       35.72       15.28       
C           92.23       35.29       15.04       
C           91.1        35.2        15.81       
C           95.22       37.7        19.86       
C           96.09       37.07       18.98       
S           93.61       37.21       19.48       
H           96.01       35.73       17.21       
H           97.15       37.3        19.06       
C           95.48       36.29       18.01       
C           94.09       36.33       18.08       
C           96.6        39.78       22.74       
C           95.24       39.96       22.77       
S           97.05       38.65       21.49       
H           93.44       39.41       21.65       
H           94.77       40.6        23.55       
C           94.52       39.37       21.62       
C           95.41       38.64       20.91       
C           100.86      41.47       27.5        
C           100.47      40.2        26.85       
C           100.11      42.57       27.11       
C           99.51       40.2        25.86       
C           98.82       41.43       25.45       
C           99.18       38.99       25.29       
C           99.11       42.65       26.12       
C           98.54       43.99       25.81       
N           97.59       43.93       24.75       
C           97.24       42.71       24.13       
C           99.8        37.65       25.62       
N           100.65      37.72       26.74       
C           101.06      38.9        27.32       
O           99.52       36.61       25.07       
O           101.83      38.82       28.28       
O           98.97       45.01       26.4        
O           96.46       42.75       23.17       
C           96.81       45.16       24.37       
C           101.23      36.5        27.35       
H           96.18       45.43       25.19       
H           96.19       44.93       23.52       
H           97.44566    45.96707    24.00575    
H           102.32      36.64       27.54       
H           101.23      35.6        26.71       
H           100.72018   36.23052    28.27497    
H           100.42      43.53       27.59       
H           97.83       38.05       23.95       
C           98.14       39.02       24.36       
C           97.88       41.43       24.43       
C           97.49       40.19       23.87       
C           103.7       42.1        30.21       
C           104.23      41.53       29.08       
S           101.95      42.46       29.95       
H           103.66      40.85       27.14       
H           105.2       41.12       28.92       
C           103.32      41.33       28.09       
C           102.03      41.75       28.35       
C           106.07      41.92       33.16       
C           104.91      42.39       33.66       
S           105.91      41.55       31.51       
H           103.0       43.22       32.82       
H           104.83      42.71       34.71       
C           103.91      42.67       32.7        
C           104.34      42.18       31.47       
C           109.78      41.11       33.95       
C           109.22      41.58       35.13       
S           108.52      41.0        32.72       
H           107.25      42.36       35.76       
H           109.72      41.7        36.09       
C           107.87      41.98       34.95       
C           107.33      41.67       33.76       
C           115.87      38.81       32.61       
C           115.26      40.04       32.51       
C           115.14      37.8        33.26       
C           113.92      40.24       33.1        
C           113.21      39.23       33.72       
C           113.24      41.51       32.96       
C           113.83      37.95       33.8        
C           113.18      36.72       34.27       
N           111.84      36.9        34.73       
C           111.18      38.2        34.69       
C           113.94      42.74       32.36       
N           115.24      42.44       31.83       
C           115.93      41.21       31.82       
O           113.45      43.84       32.4        
O           117.12      41.09       31.54       
O           113.83      35.69       34.33       
O           110.07      38.27       35.21       
C           111.06      35.66       34.51       
C           115.88      43.55       31.04       
H           111.5       35.05       33.72       
H           110.07      36.04       34.35       
H           110.98272   35.04882    35.40921    
H           117.01      43.48       31.1        
H           115.66      44.45       31.51       
H           115.51422   43.62316    30.01582    
H           115.71      36.85       33.32       
H           111.54      42.66       33.04       
C           111.94      41.71       33.33       
C           111.9       39.43       34.16       
C           111.17      40.68       33.91       
C           119.37      37.48       31.18       
C           118.6       37.87       30.16       
S           118.53      37.64       32.72       
H           116.56      38.67       29.9        
H           118.92      37.88       29.09       
C           117.31      38.29       30.55       
C           117.09      38.24       31.91       
C           123.0       36.39       30.29       
C           122.94      36.53       31.69       
S           121.48      36.59       29.6        
H           121.5       37.42       33.14       
H           123.81      36.47       32.29       
C           121.64      37.02       32.11       
C           120.69      36.97       31.13       
C           126.3       36.2        28.19       
C           125.2       35.71       27.51       
S           125.74      36.69       29.71       
H           123.08      35.28       27.71       
H           125.23      35.23       26.54       
C           123.98      35.71       28.11       
C           124.09      36.11       29.4        
C           132.53      35.68       25.92       
C           131.88      35.44       27.12       
C           131.69      36.39       24.96       
C           130.51      35.75       27.3        
C           129.75      36.37       26.34       
C           129.77      35.29       28.47       
C           130.39      36.71       25.15       
C           129.74      37.35       24.03       
N           128.39      37.67       24.22       
C           127.62      37.38       25.37       
C           130.5       34.64       29.6        
N           131.9       34.39       29.46       
C           132.66      34.79       28.25       
O           129.91      34.2        30.58       
O           133.81      34.6        28.37       
O           130.32      37.69       23.01       
O           126.38      37.58       25.37       
C           127.84      38.72       23.36       
C           132.61      33.59       30.46       
H           128.57      39.49       22.97       
H           127.09      39.33       23.91       
H           127.3519    38.2869     22.48692    
H           133.32      32.97       29.98       
H           131.93      32.86       30.96       
H           133.12219   34.20042    31.20373    
H           131.95      36.47       23.91       
H           127.96      35.24       29.54       
C           128.4       35.5        28.62       
C           128.33      36.61       26.47       
C           127.64      36.16       27.64       
C           135.71      34.78       23.79       
C           135.52      33.79       24.62       
S           134.48      35.96       23.89       
H           134.25      33.22       26.38       
H           136.09      32.9        24.66       
C           134.5       33.99       25.61       
C           133.73      35.08       25.28       
C           138.45      33.94       21.17       
C           137.98      35.22       20.9        
S           137.76      33.32       22.61       
H           136.33      36.53       21.69       
H           138.32      35.68       19.92       
C           136.96      35.69       21.79       
C           136.78      34.75       22.8        
H           73.35       35.58       26.74       
H           139.39      33.5        20.75       
