512

C           70.45       5.77        35.36       
C           70.11       6.35        36.54       
S           72.14       5.64        35.32       
H           71.0        6.71        38.5        
H           69.18       6.76        36.76       
C           71.18       6.41        37.47       
C           72.33       6.03        36.95       
C           65.34       4.89        31.25       
C           66.33       4.06        31.77       
C           65.57       6.25        31.5        
C           67.42       4.56        32.52       
C           67.59       5.91        32.76       
C           68.29       3.67        33.16       
C           66.62       6.77        32.19       
C           66.66       8.25        32.31       
N           67.88       8.7         32.84       
C           68.77       7.92        33.58       
C           68.1        2.21        32.99       
N           67.15       1.75        32.06       
C           66.23       2.59        31.41       
O           68.92       1.45        33.44       
O           65.39       2.03        30.74       
O           65.87       8.83        31.58       
O           69.78       8.44        34.07       
C           68.28       10.07       32.41       
C           67.23       0.31        31.71       
H           67.44       10.73       32.45       
H           69.1        10.4        33.05       
H           68.67733    10.04162    31.39539    
H           66.21       -0.18       31.83       
H           67.82       -0.29       32.38       
H           67.51836    0.12011     30.67613    
H           64.75       6.91        31.17       
H           69.84       3.6         34.58       
C           69.19       4.22        34.09       
C           68.61       6.43        33.57       
C           69.48       5.55        34.29       
C           61.6        4.09        29.92       
C           62.28       4.68        28.94       
S           62.67       3.81        31.22       
H           64.33       5.33        28.55       
H           61.89       5.01        28.02       
C           63.66       4.9         29.27       
C           64.04       4.61        30.53       
C           57.66       3.95        29.64       
C           58.03       3.21        30.75       
S           59.1        4.65        28.91       
H           59.96       2.81        31.87       
H           57.34       2.58        31.32       
C           59.42       3.28        31.06       
C           60.17       3.94        30.09       
C           53.96       3.65        28.32       
C           54.66       4.62        27.64       
S           55.22       2.8         29.3        
H           56.55       5.76        27.87       
H           54.15       5.21        26.86       
C           55.93       4.92        28.1        
C           56.36       4.06        29.09       
C           47.56       1.88        27.71       
C           48.51       2.03        28.79       
C           48.1        2.12        26.42       
C           49.81       2.53        28.62       
C           50.31       2.78        27.31       
C           50.76       2.67        29.69       
C           49.38       2.58        26.25       
C           49.76       2.83        24.76       
N           51.1        3.19        24.56       
C           52.03       3.36        25.57       
C           50.36       2.31        31.05       
N           49.01       1.98        31.22       
C           48.06       1.84        30.22       
O           51.17       2.4         31.96       
O           46.93       1.62        30.48       
O           49.05       2.43        23.87       
O           53.19       3.64        25.22       
C           51.6        3.12        23.22       
C           48.62       1.51        32.6        
H           51.27       2.21        22.77       
H           52.68       3.17        23.0        
H           51.16074    3.87498     22.56797    
H           47.59       1.87        32.71       
H           49.35       2.03        33.24       
H           48.65392    0.42467     32.69497    
H           47.52       1.91        25.49       
H           52.81       3.08        30.26       
C           52.09       3.07        29.44       
C           51.68       3.23        27.0        
C           52.58       3.27        28.13       
C           44.26       -0.19       27.44       
C           44.1        1.0         26.85       
S           45.84       -0.45       28.1        
H           45.24       2.83        26.79       
H           43.23       1.36        26.35       
C           45.22       1.81        27.1        
C           46.26       1.22        27.73       
C           41.59       -2.96       26.86       
C           42.48       -3.39       27.75       
S           42.1        -1.4        26.25       
H           44.19       -2.55       28.9        
H           42.41       -4.29       28.27       
C           43.48       -2.46       28.04       
C           43.41       -1.37       27.34       
C           38.7        -4.25       24.58       
C           38.69       -4.98       25.79       
S           40.09       -3.24       24.73       
H           39.79       -5.07       27.76       
H           37.92       -5.74       25.97       
C           39.67       -4.59       26.79       
C           40.42       -3.56       26.34       
C           36.18       -5.13       18.56       
C           36.4        -5.99       19.67       
C           36.35       -3.83       18.79       
C           36.77       -5.47       20.95       
C           37.01       -4.09       21.12       
C           36.93       -6.32       22.06       
C           36.79       -3.3        20.01       
C           37.17       -1.88       19.93       
N           37.8        -1.39       21.13       
C           37.78       -2.09       22.33       
C           36.85       -7.73       21.93       
N           36.45       -8.25       20.72       
C           36.26       -7.46       19.58       
O           37.01       -8.44       22.92       
O           35.8        -7.98       18.57       
O           37.14       -1.26       18.82       
O           38.07       -1.41       23.28       
C           38.83       -0.42       20.95       
C           36.22       -9.69       20.7        
H           39.47       -0.8        20.11       
H           39.46       -0.47       21.84       
H           38.4954     0.59804     20.75066    
H           35.37       -9.84       20.08       
H           35.89       -9.98       21.7        
H           37.06193    -10.34951   20.48952    
H           36.22       -3.09       17.94       
H           37.97       -6.53       23.86       
C           37.53       -5.81       23.23       
C           37.46       -3.58       22.34       
C           37.8        -4.46       23.38       
C           36.48       -5.26       14.68       
C           35.26       -5.76       15.02       
S           37.34       -4.81       16.16       
H           33.99       -6.16       16.86       
H           34.48       -5.96       14.17       
C           34.94       -5.77       16.47       
C           36.03       -5.31       17.13       
C           38.64       -4.65       11.47       
C           37.55       -5.38       11.12       
S           38.44       -4.02       13.1        
H           35.57       -5.72       12.06       
H           37.38       -5.67       10.06       
C           36.59       -5.35       12.17       
C           37.05       -4.99       13.39       
C           42.07       -4.29       9.33        
C           41.81       -3.12       10.07       
S           40.63       -5.31       9.5         
H           40.37       -2.35       11.57       
H           42.33       -2.2        9.8         
C           40.62       -3.17       10.91       
C           39.89       -4.29       10.76       
C           47.4        -5.24       5.61        
C           46.04       -5.18       5.34        
C           47.85       -4.92       6.87        
C           45.13       -4.96       6.42        
C           45.59       -4.55       7.68        
C           43.75       -4.96       6.16        
C           47.01       -4.55       7.89        
C           47.51       -4.42       9.29        
N           46.57       -4.15       10.32       
C           45.18       -3.94       10.1        
C           43.17       -5.4        4.95        
N           44.07       -5.67       3.93        
C           45.46       -5.56       4.08        
O           41.93       -5.33       4.87        
O           46.25       -5.61       3.1         
O           48.72       -4.48       9.42        
O           44.35       -3.84       11.03       
C           46.99       -4.67       11.64       
C           43.52       -5.56       2.59        
H           47.49       -5.63       11.57       
H           46.09       -4.8        12.26       
H           47.57811    -3.92275    12.17276    
H           43.92       -4.62       2.25        
H           42.45       -5.27       2.55        
H           43.73123    -6.47046    2.02916     
H           48.88       -5.03       7.16        
H           41.82       -4.79       7.01        
C           42.9        -4.75       7.21        
C           44.67       -4.28       8.75        
C           43.28       -4.44       8.54        
C           50.85       -6.35       3.82        
C           49.84       -7.25       3.4         
S           50.11       -5.13       4.78        
H           47.62       -7.52       3.8         
H           50.02       -8.01       2.67        
C           48.56       -6.96       3.98        
C           48.53       -5.84       4.77        
C           54.63       -7.2        3.59        
C           54.42       -5.95       3.01        
S           53.15       -7.85       4.22        
H           52.78       -4.55       2.76        
H           55.22       -5.37       2.5         
C           53.06       -5.47       3.15        
C           52.27       -6.47       3.56        
C           57.4        -9.89       4.51        
C           58.03       -8.93       3.71        
S           55.74       -9.55       4.63        
H           57.4        -7.16       2.64        
H           59.06       -8.89       3.59        
C           57.08       -7.97       3.25        
C           55.81       -8.1        3.68        
C           60.7        -14.79      7.19        
C           60.71       -13.39      7.37        
C           59.84       -15.33      6.24        
C           59.95       -12.52      6.55        
C           59.05       -13.12      5.62        
C           59.95       -11.15      6.68        
C           59.06       -14.55      5.44        
C           58.28       -15.21      4.3         
N           57.35       -14.43      3.63        
C           57.25       -13.02      3.81        
C           60.64       -10.5       7.78        
N           61.49       -11.34      8.48        
C           61.53       -12.72      8.4         
O           60.67       -9.27       7.88        
O           62.11       -13.28      9.32        
O           58.41       -16.4       4.06        
O           56.54       -12.3       3.04        
C           56.74       -14.98      2.43        
C           62.39       -10.71      9.47        
H           57.59       -15.51      1.87        
H           56.35       -14.18      1.76        
H           55.87423    -15.58045   2.70928     
H           62.49       -11.31      10.4        
H           61.99       -9.74       9.71        
H           63.37738    -10.47559   9.07221     
H           59.74       -16.39      6.16        
H           59.04       -9.32       6.14        
C           59.02       -10.43      5.99        
C           58.17       -12.37      4.83        
C           58.12       -11.0       5.03        
C           63.47       -17.18      8.87        
C           62.27       -17.79      8.94        
S           63.33       -15.64      8.1         
H           60.19       -17.36      8.14        
H           62.16       -18.75      9.42        
C           61.23       -17.02      8.24        
C           61.6        -15.79      7.83        
C           66.5        -19.12      10.54       
C           66.83       -17.79      10.32       
S           64.87       -19.35      9.92        
H           65.96       -15.95      9.65        
H           67.85       -17.5       10.61       
C           65.81       -16.98      9.69        
C           64.71       -17.65      9.37        
C           69.18       -21.56      11.98       
C           67.97       -22.17      11.84       
S           68.95       -19.92      11.45       
H           65.95       -21.75      10.91       
H           67.84       -23.21      12.1        
C           66.91       -21.41      11.25       
C           67.28       -20.13      11.04       
C           74.75       -24.35      14.38       
C           73.35       -24.54      14.63       
C           75.08       -23.5       13.29       
C           72.41       -23.82      13.96       
C           72.74       -22.95      12.89       
C           71.01       -23.89      14.3        
C           74.12       -22.79      12.57       
C           74.57       -22.06      11.38       
N           73.58       -21.32      10.72       
C           72.23       -21.36      11.07       
C           70.47       -24.9       15.2        
N           71.43       -25.71      15.75       
C           72.83       -25.58      15.6        
O           69.3        -25.07      15.41       
O           73.49       -26.55      16.03       
O           75.68       -22.04      10.96       
O           71.5        -20.65      10.32       
C           74.0        -20.74      9.39        
C           71.01       -26.31      17.0        
H           73.16       -20.57      8.79        
H           74.55       -21.51      8.82        
H           74.55152    -19.80666   9.50313     
H           71.6        -27.2       17.17       
H           69.94       -26.43      17.05       
H           71.21209    -25.66043   17.85166    
H           76.08       -23.44      12.98       
H           69.06       -23.27      14.0        
C           70.08       -23.2       13.56       
C           71.7        -22.24      12.19       
C           70.39       -22.25      12.53       
C           78.32       -25.56      15.72       
C           77.43       -25.79      16.71       
S           77.5        -24.97      14.29       
H           75.27       -25.27      17.03       
H           77.72       -26.2       17.65       
C           76.08       -25.39      16.33       
C           75.96       -24.89      15.05       
C           82.1        -25.29      16.01       
C           81.84       -25.52      14.73       
S           80.7        -25.29      17.05       
H           79.95       -25.54      13.53       
H           82.68       -25.65      13.97       
C           80.42       -25.52      14.45       
C           79.72       -25.54      15.67       
C           85.47       -24.04      17.16       
C           85.1        -24.98      18.09       
S           84.34       -23.89      15.9        
H           83.35       -26.26      18.57       
H           85.68       -25.32      18.99       
C           83.86       -25.57      17.84       
C           83.37       -25.13      16.61       
C           91.48       -21.29      17.66       
C           91.08       -22.6       17.44       
C           90.61       -20.25      17.57       
C           89.7        -22.91      17.31       
C           88.7        -21.91      17.32       
C           89.23       -24.21      17.29       
C           89.2        -20.59      17.51       
C           88.3        -19.47      17.47       
N           86.98       -19.8       17.43       
C           86.42       -21.09      17.3        
C           90.19       -25.35      17.33       
N           91.56       -25.01      17.43       
C           92.11       -23.71      17.51       
O           89.78       -26.51      17.29       
O           93.28       -23.55      17.57       
O           88.71       -18.32      17.48       
O           85.21       -21.22      17.1        
C           86.06       -18.83      18.01       
C           92.49       -26.18      17.27       
H           86.54       -18.46      18.9        
H           85.12       -19.27      18.14       
H           85.9497     -17.91315   17.43094    
H           93.37       -25.78      16.76       
H           91.98       -26.8       16.54       
H           92.64971    -26.68816   18.22098    
H           90.87       -19.22      17.72       
H           87.57       -25.49      17.05       
C           87.89       -24.44      17.12       
C           87.33       -22.2       17.24       
C           86.85       -23.48      17.21       
C           94.98       -20.04      18.92       
C           94.47       -19.17      17.99       
S           93.83       -21.25      19.37       
H           92.82       -19.17      16.59       
H           95.04       -18.31      17.63       
C           93.29       -19.72      17.42       
C           92.73       -20.71      18.13       
C           98.51       -19.73      20.62       
C           97.86       -20.86      21.1        
S           97.41       -18.81      19.67       
H           95.91       -21.8       20.91       
H           98.17       -21.38      21.96       
C           96.6        -21.01      20.52       
C           96.25       -20.11      19.62       
C           102.2       -19.41      21.76       
C           101.96      -18.48      20.78       
S           100.78      -20.39      22.01       
H           100.37      -17.78      19.48       
H           102.71      -17.79      20.37       
C           100.64      -18.45      20.2        
C           99.9        -19.38      20.86       
C           107.85      -20.59      24.84       
C           106.56      -20.26      25.28       
C           108.13      -20.66      23.51       
C           105.59      -20.09      24.34       
C           105.83      -20.19      22.94       
C           104.28      -19.78      24.73       
C           107.15      -20.54      22.52       
C           107.52      -20.55      21.13       
N           106.52      -20.24      20.16       
C           105.13      -20.06      20.53       
C           103.86      -19.57      26.12       
N           104.92      -19.74      26.98       
C           106.24      -20.09      26.7        
O           102.67      -19.33      26.49       
O           106.98      -20.27      27.62       
O           108.68      -20.8       20.69       
O           104.27      -19.83      19.64       
C           106.81      -20.07      18.68       
C           104.66      -19.18      28.36       
H           105.95      -19.91      18.11       
H           107.33      -20.9       18.31       
H           107.52837   -19.26008   18.55323    
H           105.12      -19.7       29.21       
H           103.6       -19.39      28.57       
H           104.84368   -18.10617   28.39532    
H           109.12      -20.85      23.16       
H           102.38      -19.44      24.14       
C           103.34      -19.63      23.73       
C           104.79      -20.05      21.94       
C           103.51      -19.66      22.36       
C           111.19      -19.98      26.88       
C           111.3       -21.22      26.29       
S           109.66      -19.29      26.52       
H           110.1       -22.44      24.98       
H           112.25      -21.79      26.24       
C           110.12      -21.57      25.59       
C           109.05      -20.69      25.68       
C           113.14      -17.18      28.72       
C           114.09      -18.14      28.47       
S           111.68      -17.68      27.97       
H           114.17      -20.07      27.34       
H           115.1       -17.98      28.63       
C           113.53      -19.28      27.78       
C           112.16      -19.25      27.58       
C           113.27      -13.51      30.21       
C           112.04      -14.08      30.44       
S           114.18      -14.64      29.25       
H           111.02      -16.02      30.29       
H           111.3       -13.54      30.95       
C           111.96      -15.48      30.18       
C           113.06      -15.93      29.41       
C           114.45      -7.0        29.63       
C           113.34      -7.81       29.3        
C           115.59      -7.63       30.24       
C           113.41      -9.19       29.68       
C           114.51      -9.86       30.3        
C           112.42      -10.05      29.14       
C           115.63      -8.97       30.55       
C           116.91      -9.52       31.13       
N           116.87      -10.9       31.35       
C           115.72      -11.81      31.19       
C           111.15      -9.58       28.56       
N           111.01      -8.14       28.47       
C           112.06      -7.26       28.76       
O           110.25      -10.31      28.38       
O           111.83      -6.09       28.64       
O           117.85      -8.78       31.37       
O           115.76      -12.88      31.73       
C           118.1       -11.72      31.72       
C           109.65      -7.64       28.29       
H           117.92      -12.65      32.27       
H           118.69      -11.11      32.36       
H           118.64999   -12.03025   30.83155    
H           109.54      -6.78       28.84       
H           109.13      -8.4        28.71       
H           109.38834   -7.48442    27.24337    
H           116.53      -7.12       30.27       
H           111.77      -12.01      29.04       
C           112.54      -11.41      29.37       
C           114.54      -11.23      30.55       
C           113.5       -12.02      30.14       
C           115.15      -3.48       28.06       
C           115.5       -3.43       29.37       
S           114.55      -5.06       27.65       
H           115.52      -4.78       31.14       
H           115.9       -2.52       29.85       
C           115.2       -4.62       30.09       
C           114.61      -5.58       29.34       
C           116.19      -0.99       25.29       
C           115.1       -1.65       24.84       
S           116.71      -1.68       26.75       
H           113.76      -3.24       25.48       
H           114.68      -1.34       23.89       
C           114.56      -2.59       25.74       
C           115.28      -2.61       26.9        
C           118.83      1.76        24.51       
C           117.71      1.97        23.79       
S           118.55      0.33        25.44       
H           115.54      1.11        23.6        
H           117.53      2.8         23.13       
C           116.54      1.08        24.05       
C           116.92      0.11        24.92       
C           123.74      5.29        26.94       
C           122.47      5.63        26.56       
C           124.2       4.03        26.57       
C           121.63      4.76        25.84       
C           122.08      3.46        25.49       
C           120.3       5.07        25.5        
C           123.4       3.11        25.86       
C           124.07      1.84        25.5        
N           123.2       0.92        24.94       
C           121.9       1.15        24.52       
C           119.69      6.34        25.78       
N           120.51      7.25        26.47       
C           121.87      6.94        27.0        
O           118.55      6.64        25.35       
O           122.52      7.88        27.44       
O           125.19      1.52        25.85       
O           121.33      0.18        24.03       
C           123.7       -0.47       24.74       
C           119.89      8.47        26.91       
H           124.7       -0.42       24.41       
H           123.16      -1.06       24.01       
H           123.60678   -1.01498    25.67937    
H           120.15      8.67        27.95       
H           118.82      8.33        26.91       
H           120.23876   9.27912     26.26829    
H           125.21      3.71        26.87       
H           118.51      4.3         24.82       
C           119.54      4.07        24.95       
C           121.26      2.47        24.83       
C           119.95      2.75        24.68       
C           126.12      6.82        29.67       
C           126.61      7.1         28.42       
S           124.58      5.97        29.55       
H           125.9       6.83        26.23       
H           127.47      7.69        28.25       
C           125.74      6.71        27.32       
C           124.72      5.96        27.81       
C           128.15      8.07        32.72       
C           127.03      7.49        33.22       
S           128.13      8.11        30.99       
H           125.38      6.33        32.33       
H           126.72      7.42        34.26       
C           126.27      6.88        32.18       
C           126.69      7.16        30.93       
H           73.2        6.53        37.43       
H           128.92      8.58        33.42       
