512

C           65.5        0.03        30.58       
C           66.59       0.69        31.08       
S           65.7        -1.67       30.85       
H           68.66       0.16        31.89       
H           66.75       1.73        31.05       
C           67.62       -0.19       31.59       
C           67.3        -1.51       31.41       
C           61.19       2.28        26.09       
C           62.55       2.36        26.25       
C           60.44       1.67        27.06       
C           63.14       1.89        27.43       
C           62.39       1.11        28.4        
C           64.52       2.02        27.61       
C           61.0        1.11        28.23       
C           60.11       0.34        29.09       
N           60.79       -0.42       30.06       
C           62.18       -0.32       30.35       
C           65.43       2.7         26.61       
N           64.76       3.06        25.44       
C           63.41       3.01        25.18       
O           66.56       2.9         26.81       
O           63.02       3.39        24.04       
O           58.9        0.3         28.94       
O           62.56       -0.74       31.42       
C           60.03       -1.55       30.7        
C           65.55       3.59        24.3        
H           60.57       -1.85       31.53       
H           59.06       -1.27       31.05       
H           59.9327     -2.4118     30.03975    
H           65.26       3.14        23.35       
H           66.59       3.23        24.49       
H           65.68024    4.6681      24.20594    
H           59.4        1.52        26.9        
H           66.21       1.56        28.82       
C           65.14       1.47        28.73       
C           63.06       0.49        29.52       
C           64.47       0.64        29.66       
C           58.58       3.05        23.16       
C           59.58       2.32        22.66       
S           58.78       3.28        24.88       
H           61.46       1.53        23.29       
H           59.64       2.1         21.56       
C           60.53       1.93        23.64       
C           60.34       2.51        24.86       
C           55.54       4.14        20.88       
C           55.23       4.49        22.17       
S           57.17       3.55        20.77       
H           56.15       4.45        24.12       
H           54.34       4.9         22.49       
C           56.25       4.23        23.08       
C           57.31       3.54        22.49       
C           54.06       4.68        17.21       
C           53.78       5.83        17.92       
S           54.93       3.54        18.27       
H           54.5        6.68        19.81       
H           53.27       6.74        17.45       
C           54.42       5.81        19.24       
C           54.91       4.6         19.65       
C           52.7        4.45        10.69       
C           52.27       3.8         11.8        
C           53.62       5.48        10.93       
C           52.73       4.12        13.14       
C           53.61       5.18        13.37       
C           52.26       3.44        14.27       
C           54.02       5.87        12.22       
C           55.05       6.98        12.24       
N           55.59       7.19        13.58       
C           55.2        6.49        14.71       
C           51.22       2.35        14.19       
N           50.79       2.02        12.89       
C           51.27       2.66        11.7        
O           50.92       1.69        15.14       
O           50.74       2.22        10.73       
O           55.53       7.41        11.18       
O           55.78       6.75        15.82       
C           56.58       8.3         13.87       
C           50.36       0.61        12.69       
H           57.6        8.07        13.65       
H           56.58       8.61        14.86       
H           56.29499    9.28015     13.48767    
H           49.57       0.54        11.9        
H           49.8        0.35        13.59       
H           51.18005    -0.08496    12.50931    
H           53.95       6.02        10.03       
H           52.43       3.14        16.39       
C           52.79       3.7         15.53       
C           54.12       5.44        14.68       
C           53.78       4.62        15.77       
C           51.14       3.8         7.19        
C           52.45       3.51        7.06        
S           50.73       4.46        8.7         
H           54.2        3.61        8.53        
H           53.01       3.02        6.24        
C           53.15       3.78        8.38        
C           52.33       4.31        9.3         
C           49.04       3.81        3.83        
C           48.23       4.17        4.91        
S           50.58       3.5         4.48        
H           48.37       4.49        7.06        
H           47.14       4.18        4.86        
C           48.89       4.23        6.15        
C           50.21       3.95        6.1         
C           48.75       2.7         -0.01       
C           47.66       3.46        0.34        
S           49.87       2.84        1.34        
H           46.92       4.53        2.1         
H           46.8        3.6         -0.29       
C           47.67       3.95        1.68        
C           48.74       3.62        2.38        
C           49.36       -2.27       -4.24       
C           48.33       -1.7        -3.53       
C           50.6        -1.62       -4.21       
C           48.49       -0.48       -2.79       
C           49.71       0.15        -2.79       
C           47.41       0.1         -2.04       
C           50.77       -0.43       -3.52       
C           52.16       0.02        -3.46       
N           52.28       1.13        -2.66       
C           51.24       1.82        -2.0        
C           46.09       -0.58       -1.82       
N           45.93       -1.64       -2.66       
C           46.9        -2.23       -3.51       
O           45.28       -0.24       -0.96       
O           46.52       -3.09       -4.32       
O           53.05       -0.64       -4.03       
O           51.53       2.87        -1.34       
C           53.65       1.8         -2.45       
C           44.49       -1.92       -2.91       
H           53.7        2.16        -1.47       
H           53.78       2.64        -3.05       
H           54.53357    1.16187     -2.43598    
H           44.4        -2.11       -4.02       
H           43.98       -1.04       -2.63       
H           44.18229    -2.82166    -2.38045    
H           51.45       -2.07       -4.83       
H           46.73       1.57        -0.76       
C           47.58       1.23        -1.35       
C           49.85       1.31        -1.99       
C           48.85       1.87        -1.21       
C           49.62       -5.36       -6.54       
C           49.36       -5.82       -5.32       
S           49.8        -3.72       -6.6        
H           48.88       -4.84       -3.35       
H           49.29       -6.88       -5.08       
C           49.2        -4.75       -4.39       
C           49.5        -3.58       -4.93       
C           49.98       -8.11       -9.16       
C           49.75       -6.99       -9.85       
S           49.83       -7.89       -7.48       
H           49.56       -4.87       -9.31       
H           49.88       -6.84       -10.92      
C           49.59       -5.88       -8.98       
C           49.62       -6.2        -7.68       
C           50.88       -11.89      -9.85       
C           50.64       -11.31      -11.11      
S           50.52       -10.75      -8.58       
H           50.01       -9.32       -11.79      
H           50.95       -11.88      -12.07      
C           50.25       -9.96       -10.97      
C           50.23       -9.44       -9.66       
C           52.89       -18.1       -8.42       
C           51.75       -17.55      -9.09       
C           53.87       -17.14      -8.15       
C           51.58       -16.13      -9.27       
C           52.64       -15.21      -8.98       
C           50.43       -15.56      -9.86       
C           53.8        -15.77      -8.43       
C           54.94       -14.95      -7.9        
N           54.83       -13.58      -8.0        
C           53.64       -12.96      -8.59       
C           49.27       -16.35      -10.29      
N           49.33       -17.73      -9.94       
C           50.5        -18.36      -9.4        
O           48.22       -15.86      -10.76      
O           50.52       -19.53      -9.04       
O           55.91       -15.38      -7.36       
O           53.58       -11.77      -8.59       
C           55.31       -12.77      -6.85       
C           48.06       -18.51      -9.86       
H           55.03       -13.21      -5.92       
H           54.77       -11.86      -6.63       
H           56.37044    -12.5242    -6.90618    
H           48.22       -19.52      -10.21      
H           47.33       -18.17      -10.6       
H           47.66025    -18.53855   -8.84635    
H           54.71       -17.43      -7.59       
H           49.46       -13.82      -10.46      
C           50.3        -14.17      -9.99       
C           52.51       -13.85      -9.2        
C           51.34       -13.27      -9.71       
C           55.15       -21.36      -8.69       
C           54.1        -21.55      -9.44       
S           54.97       -19.96      -7.68       
H           52.36       -20.36      -10.13      
H           54.07       -22.35      -10.14      
C           53.16       -20.43      -9.45       
C           53.55       -19.43      -8.56       
C           58.39       -23.29      -7.58       
C           57.87       -23.9       -8.67       
S           57.26       -22.05      -7.02       
H           56.09       -23.8       -9.95       
H           58.29       -24.79      -9.12       
C           56.66       -23.35      -9.07       
C           56.27       -22.23      -8.39       
C           61.75       -23.38      -5.55       
C           61.55       -24.67      -6.06       
S           60.45       -22.31      -6.06       
H           59.99       -25.56      -7.33       
H           62.2        -25.5       -6.0        
C           60.34       -24.72      -6.84       
C           59.66       -23.54      -6.92       
C           67.3        -21.42      -2.56       
C           67.02       -22.04      -3.79       
C           66.19       -21.07      -1.73       
C           65.68       -22.31      -4.17       
C           64.64       -21.96      -3.34       
C           65.44       -23.02      -5.45       
C           64.91       -21.29      -2.1        
C           63.85       -20.67      -1.24       
N           62.53       -21.17      -1.56       
C           62.22       -21.96      -2.74       
C           66.54       -23.3       -6.35       
N           67.84       -23.12      -5.9        
C           68.16       -22.54      -4.6        
O           66.35       -23.75      -7.52       
O           69.3        -22.27      -4.39       
O           64.09       -20.01      -0.24       
O           61.06       -22.34      -2.86       
C           61.56       -21.12      -0.4        
C           68.95       -23.25      -6.84       
H           62.05       -21.47      0.6         
H           60.78       -21.89      -0.53       
H           61.0352     -20.16835   -0.31603    
H           69.57       -22.42      -6.81       
H           68.52       -23.18      -7.85       
H           69.62968    -24.07277   -6.61821    
H           66.3        -20.44      -0.86       
H           63.9        -23.85      -6.73       
C           64.13       -23.4       -5.77       
C           63.32       -22.35      -3.73       
C           63.03       -23.02      -4.94       
C           70.66       -20.73      -0.44       
C           70.37       -19.61      -1.18       
S           69.54       -21.93      -0.81       
H           68.78       -18.97      -2.43       
H           70.9        -18.68      -1.17       
C           69.2        -19.77      -1.96       
C           68.55       -20.97      -1.86       
C           73.61       -20.73      2.09        
C           72.74       -21.61      2.52        
S           73.12       -19.98      0.57        
H           70.88       -22.48      1.83        
H           72.93       -22.22      3.39        
C           71.66       -21.75      1.69        
C           71.67       -20.9       0.57        
C           75.86       -19.11      4.81        
C           76.52       -18.97      3.62        
S           74.35       -20.01      4.59        
H           76.36       -19.88      1.49        
H           77.46       -18.41      3.59        
C           75.99       -19.71      2.52        
C           74.7        -20.14      2.85        
C           77.68       -16.08      10.46       
C           77.25       -17.35      10.12       
C           77.71       -15.15      9.39        
C           76.9        -17.62      8.8         
C           76.88       -16.67      7.76        
C           76.58       -18.94      8.46        
C           77.3        -15.38      8.12        
C           77.46       -14.3       7.08        
N           77.05       -14.64      5.75        
C           76.59       -15.96      5.4         
C           76.66       -20.01      9.41        
N           76.93       -19.68      10.72       
C           77.19       -18.39      11.19       
O           76.39       -21.16      9.05        
O           77.56       -18.24      12.36       
O           77.93       -13.18      7.31        
O           76.25       -16.14      4.28        
C           77.43       -13.63      4.68        
C           76.66       -20.68      11.76       
H           77.49       -14.11      3.7         
H           78.46       -13.24      4.84        
H           76.73609    -12.79447   4.58795     
H           77.43       -20.8       12.49       
H           76.6        -21.56      11.23       
H           75.75182    -20.44767   12.31617    
H           78.2        -14.23      9.59        
H           75.82       -20.32      7.06        
C           76.16       -19.28      7.19        
C           76.56       -17.07      6.44        
C           76.16       -18.4       6.09        
C           79.52       -14.89      13.75       
C           78.31       -14.37      13.82       
S           79.86       -15.7       12.25       
H           76.47       -14.6       12.56       
H           77.94       -13.73      14.6        
C           77.53       -14.76      12.65       
C           78.22       -15.54      11.73       
C           82.59       -14.89      16.13       
C           81.48       -14.32      16.76       
S           82.1        -15.44      14.58       
H           79.26       -13.93      16.36       
H           81.61       -13.91      17.82       
C           80.26       -14.28      16.05       
C           80.46       -14.9       14.8        
C           86.18       -15.25      17.49       
C           85.99       -16.11      16.52       
S           84.78       -14.26      17.65       
H           84.39       -16.88      15.16       
H           86.8        -16.81      16.26       
C           84.7        -16.14      15.9        
C           83.9        -15.21      16.55       
C           92.4        -14.14      19.51       
C           91.83       -14.09      18.27       
C           91.68       -14.69      20.58       
C           90.42       -14.4       18.1        
C           89.64       -14.86      19.18       
C           89.78       -14.46      16.86       
C           90.32       -15.05      20.43       
C           89.76       -15.69      21.6        
N           88.42       -16.03      21.52       
C           87.66       -15.81      20.39       
C           90.51       -14.2       15.65       
N           91.82       -13.77      15.74       
C           92.52       -13.65      16.97       
O           89.85       -14.24      14.59       
O           93.58       -13.1       16.87       
O           90.44       -15.98      22.55       
O           86.56       -16.3       20.31       
C           87.91       -16.92      22.55       
C           92.69       -13.84      14.55       
H           88.47       -17.79      22.62       
H           86.91       -17.18      22.36       
H           87.79264    -16.42986   23.51648    
H           93.6        -13.25      14.69       
H           92.11       -13.46      13.77       
H           92.97889    -14.858     14.28862    
H           92.19       -14.86      21.49       
H           87.88       -14.46      15.88       
C           88.4        -14.65      16.85       
C           88.24       -15.22      19.17       
C           87.6        -15.0       17.93       
C           95.9        -13.67      20.97       
C           95.92       -14.86      20.28       
S           94.44       -12.77      20.8        
H           94.73       -15.69      18.78       
H           96.71       -15.66      20.26       
C           94.74       -14.95      19.49       
C           93.8        -14.03      19.82       
C           98.91       -11.74      22.35       
C           97.86       -11.18      22.96       
S           98.59       -13.1       21.24       
H           95.65       -11.56      22.95       
H           97.88       -10.29      23.57       
C           96.66       -11.84      22.52       
C           96.9        -12.95      21.71       
C           102.53      -10.47      23.37       
C           102.51      -10.82      22.09       
S           100.97      -10.83      24.05       
H           101.04      -11.66      20.52       
H           103.31      -10.6       21.41       
C           101.28      -11.4       21.57       
C           100.33      -11.38      22.53       
C           107.65      -7.04       25.97       
C           107.58      -8.27       25.2        
C           106.46      -6.29       26.04       
C           106.3       -8.78       24.9        
C           105.09      -8.01       25.08       
C           106.14      -9.98       24.24       
C           105.24      -6.77       25.69       
C           104.06      -5.85       25.92       
N           102.89      -6.28       25.26       
C           102.71      -7.51       24.62       
C           107.28      -10.8       23.91       
N           108.58      -10.36      24.27       
C           108.78      -9.13       24.89       
O           107.06      -11.89      23.41       
O           109.88      -8.78       25.2        
O           104.28      -4.67       26.35       
O           101.67      -7.73       24.05       
C           101.59      -5.64       25.5        
C           109.58      -11.4       24.25       
H           101.55      -5.27       26.48       
H           100.77      -6.32       25.4        
H           101.46297   -4.77905    24.8437     
H           110.47      -10.91      24.22       
H           109.55      -12.03      23.35       
H           109.52405   -12.0294    25.13816    
H           106.49      -5.37       26.69       
H           104.86      -11.38      23.29       
C           104.86      -10.44      23.85       
C           103.82      -8.5        24.58       
C           103.65      -9.79       24.03       
C           110.99      -5.03       26.63       
C           110.3       -5.09       27.78       
S           110.1       -5.76       25.36       
H           108.48      -6.11       28.57       
H           110.69      -4.47       28.67       
C           109.12      -5.85       27.74       
C           108.86      -6.3        26.48       
C           114.12      -2.66       26.55       
C           114.01      -3.29       25.32       
S           112.83      -3.08       27.64       
H           112.55      -4.68       24.27       
H           114.75      -3.18       24.63       
C           112.91      -4.13       25.19       
C           112.19      -4.2        26.38       
C           116.27      -0.12       28.55       
C           116.73      -0.21       27.32       
S           114.9       -1.11       28.64       
H           116.44      -1.33       25.42       
H           117.56      0.4         26.96       
C           116.15      -1.17       26.48       
C           115.07      -1.73       27.02       
C           118.55      4.22        33.13       
C           117.84      3.01        33.17       
C           118.78      4.76        31.88       
C           117.47      2.37        31.95       
C           117.81      2.88        30.63       
C           116.85      1.12        31.93       
C           118.42      4.16        30.64       
C           118.6       4.94        29.43       
N           118.18      4.26        28.27       
C           117.44      3.03        28.24       
C           116.53      0.41        33.22       
N           116.8       1.08        34.47       
C           117.48      2.25        34.45       
O           115.81      -0.61       33.15       
O           117.7       2.66        35.59       
O           119.14      6.01        29.4        
O           117.13      2.69        27.18       
C           117.96      5.19        27.09       
C           115.91      0.79        35.66       
H           117.7       6.16        27.51       
H           117.05      4.95        26.51       
H           118.85617   5.292       26.47798    
H           116.34      1.02        36.6        
H           115.83      -0.29       35.65       
H           114.8935    1.17293     35.56949    
H           119.32      5.73        31.87       
H           116.06      -0.46       30.83       
C           116.5       0.5         30.78       
C           117.25      2.33        29.48       
C           116.64      1.0         29.49       
C           120.03      6.39        36.08       
C           118.71      6.56        36.13       
S           120.51      5.28        34.78       
H           116.93      5.97        34.93       
H           118.2       7.24        36.84       
C           118.04      5.83        35.1        
C           118.87      5.12        34.26       
C           121.91      8.1         39.09       
C           122.84      7.93        38.13       
S           120.38      7.47        38.66       
H           123.01      6.8         36.21       
H           123.87      8.21        38.34       
C           122.35      7.19        36.97       
C           120.97      7.0         37.03       
C           123.03      9.88        42.41       
C           121.69      9.77        42.46       
S           123.65      9.3         40.92       
H           120.1       9.02        41.15       
H           121.1       10.07       43.33       
C           121.12      9.23        41.26       
C           122.07      8.83        40.37       
C           126.44      13.63       46.63       
C           125.25      13.87       45.97       
C           126.95      12.32       46.64       
C           124.82      12.83       45.09       
C           125.36      11.51       45.05       
C           123.67      13.04       44.3        
C           126.51      11.26       45.84       
C           127.13      9.94        45.97       
N           126.49      8.95        45.22       
C           125.45      9.14        44.3        
C           122.95      14.33       44.25       
N           123.54      15.4        45.0        
C           124.62      15.2        45.92       
O           121.94      14.54       43.56       
O           124.97      16.1        46.63       
O           128.16      9.88        46.63       
O           125.01      8.19        43.65       
C           127.18      7.68        45.35       
C           122.91      16.76       44.99       
H           128.21      7.73        45.02       
H           126.78      6.98        44.61       
H           127.03216   7.19423     46.3145     
H           122.98      17.23       45.95       
H           121.83      16.58       44.87       
H           123.15827   17.41259    44.15299    
H           127.72      12.08       47.43       
H           122.47      12.4        42.76       
C           123.2       12.06       43.47       
C           124.85      10.49       44.21       
C           123.78      10.78       43.4        
C           128.91      15.58       49.1        
C           127.66      15.93       49.36       
S           128.91      14.41       47.81       
H           125.63      15.28       48.83       
H           127.49      16.58       50.2        
C           126.69      15.21       48.67       
C           127.17      14.42       47.68       
C           131.84      17.15       51.27       
C           132.39      16.43       50.25       
S           130.12      16.89       51.24       
H           131.61      15.04       48.68       
H           133.37      16.35       50.09       
C           131.38      15.73       49.46       
C           130.1       15.95       49.79       
H           68.05       -2.24       31.15       
H           132.34      17.83       52.02       
