512

C           60.1        10.95       38.16       
C           60.73       9.74        37.97       
S           60.03       11.23       39.9        
H           61.33       7.88        39.1        
H           61.1        9.39        37.0        
C           60.87       8.9         39.14       
C           60.32       9.49        40.25       
C           57.92       14.1        32.85       
C           57.9        12.76       33.21       
C           58.33       15.04       33.82       
C           58.4        12.39       34.48       
C           58.84       13.36       35.41       
C           58.52       11.03       34.79       
C           58.79       14.73       35.08       
C           59.27       15.88       35.89       
N           59.89       15.48       37.1        
C           59.82       14.15       37.57       
C           58.12       9.94        33.9        
N           57.63       10.33       32.64       
C           57.53       11.72       32.26       
O           58.27       8.71        34.25       
O           57.18       11.98       31.13       
O           59.2        17.02       35.53       
O           60.48       13.8        38.6        
C           60.31       16.46       38.16       
C           56.89       9.39        31.78       
H           61.12       16.04       38.74       
H           60.69       17.34       37.72       
H           59.49601    16.77252    38.8141     
H           55.88       9.78        31.48       
H           56.68       8.53        32.46       
H           57.35729    9.02183     30.86666    
H           58.37       16.1        33.53       
H           59.07       9.57        36.29       
C           59.04       10.66       36.05       
C           59.32       12.99       36.71       
C           59.48       11.58       37.01       
C           56.77       15.89       29.62       
C           58.04       16.28       29.9        
S           56.14       14.93       30.91       
H           59.51       15.91       31.58       
H           58.59       17.03       29.32       
C           58.54       15.65       31.11       
C           57.66       14.77       31.62       
C           55.16       17.9        26.63       
C           54.13       17.35       27.32       
S           56.68       17.41       27.31       
H           53.87       16.07       29.2        
H           53.1        17.39       27.0        
C           54.53       16.61       28.48       
C           55.9        16.5        28.56       
C           54.35       19.89       23.38       
C           55.76       19.97       23.62       
S           53.6        18.99       24.66       
H           57.17       19.28       25.13       
H           56.53       20.54       23.12       
C           56.16       19.26       24.83       
C           55.12       18.73       25.5        
C           51.08       23.89       19.35       
C           50.93       23.68       20.69       
C           52.27       23.54       18.7        
C           51.82       22.83       21.32       
C           52.9        22.14       20.56       
C           51.63       22.36       22.62       
C           53.17       22.71       19.28       
C           54.26       22.25       18.41       
N           55.04       21.22       19.0        
C           54.93       20.76       20.35       
C           50.54       22.78       23.49       
N           49.64       23.7        22.9        
C           49.73       24.14       21.53       
O           50.47       22.43       24.67       
O           48.95       24.9        21.11       
O           54.57       22.86       17.39       
O           55.66       19.84       20.7        
C           56.05       20.6        18.12       
C           48.93       24.66       23.75       
H           55.68       20.53       17.11       
H           56.13       19.5        18.3        
H           57.02177    21.09293    18.14817    
H           49.02       25.61       23.36       
H           49.25       24.6        24.76       
H           47.88976    24.33448    23.75708    
H           52.34       23.67       17.69       
H           52.24       21.15       24.21       
C           52.53       21.42       23.19       
C           53.76       21.14       21.15       
C           53.58       20.73       22.48       
C           48.9        25.86       16.65       
C           48.07       25.02       17.33       
S           50.54       25.78       17.28       
H           48.32       23.34       18.7        
H           47.02       24.79       16.98       
C           48.84       24.21       18.22       
C           50.14       24.52       18.38       
C           48.31       28.5        13.75       
C           47.12       28.16       14.25       
S           49.57       27.65       14.65       
H           46.26       26.86       15.83       
H           46.13       28.51       13.89       
C           47.2        27.28       15.42       
C           48.46       26.89       15.76       
C           48.33       30.24       10.3        
C           49.62       30.47       10.87       
S           47.26       29.7        11.52       
H           50.65       29.85       12.68       
H           50.44       30.91       10.31       
C           49.71       29.98       12.2        
C           48.57       29.35       12.6        
C           47.51       29.87       3.78        
C           46.81       30.54       4.75        
C           48.74       29.29       4.17        
C           47.32       30.55       6.09        
C           48.55       29.94       6.47        
C           46.53       31.09       7.14        
C           49.26       29.33       5.4         
C           50.51       28.62       5.56        
N           50.95       28.46       6.89        
C           50.22       28.98       8.01        
C           45.21       31.74       7.02        
N           44.78       31.87       5.69        
C           45.43       31.21       4.6         
O           44.62       32.23       8.07        
O           44.84       31.36       3.53        
O           51.05       28.07       4.64        
O           50.6        28.64       9.13        
C           52.1        27.66       7.21        
C           43.56       32.63       5.52        
H           52.06       26.77       6.66        
H           52.19       27.38       8.22        
H           52.98118    28.2188     6.89478     
H           43.54       33.07       4.55        
H           43.45       33.37       6.3         
H           42.74492    31.91415    5.62631     
H           49.38       28.72       3.43        
H           46.39       31.36       9.25        
C           47.0        30.92       8.46        
C           48.99       29.75       7.82        
C           48.17       30.24       8.82        
C           47.22       29.31       -0.09       
C           45.96       29.09       0.45        
S           48.34       29.61       1.2         
H           45.01       29.17       2.43        
H           45.15       28.72       -0.18       
C           45.92       29.25       1.89        
C           47.15       29.51       2.45        
C           48.98       29.06       -3.51       
C           47.71       28.67       -3.7        
S           49.18       29.69       -1.9        
H           45.96       28.29       -2.35       
H           47.3        28.2        -4.56       
C           46.99       28.61       -2.45       
C           47.66       29.19       -1.44       
C           51.42       28.26       -6.59       
C           52.17       28.84       -5.52       
S           49.78       28.19       -5.98       
H           51.96       29.6        -3.54       
H           53.21       29.02       -5.57       
C           51.44       29.12       -4.39       
C           50.06       28.95       -4.43       
C           54.03       27.45       -12.54      
C           52.71       27.43       -12.16      
C           55.05       27.37       -11.52      
C           52.47       27.44       -10.75      
C           53.52       27.41       -9.7        
C           51.2        27.63       -10.28      
C           54.85       27.35       -10.18      
C           55.99       27.34       -9.3        
N           55.72       27.29       -7.93       
C           54.4        27.45       -7.5        
C           49.97       27.82       -11.12      
N           50.27       27.72       -12.48      
C           51.53       27.52       -13.07      
O           48.87       28.1        -10.7       
O           51.58       27.36       -14.28      
O           57.13       27.45       -9.77       
O           54.36       27.27       -6.31       
C           56.8        27.61       -6.93       
C           49.14       27.86       -13.38      
H           56.46       27.51       -5.91       
H           56.94       28.67       -7.05       
H           57.75883    27.12343    -7.10889    
H           49.46       28.2        -14.42      
H           48.45       28.54       -12.91      
H           48.62433    26.90637    -13.49302   
H           56.1        27.41       -11.75      
H           49.9        27.98       -8.68       
C           50.98       27.8        -8.93       
C           53.22       27.53       -8.35       
C           51.92       27.72       -7.88       
C           56.0        26.56       -15.92      
C           55.13       27.56       -16.19      
S           55.67       25.96       -14.32      
H           53.69       28.89       -15.11      
H           55.14       28.0        -17.22      
C           54.4        28.03       -15.05      
C           54.56       27.24       -13.92      
C           59.32       25.21       -17.62      
C           58.54       25.83       -18.57      
S           58.41       25.27       -16.13      
H           56.7        26.98       -18.7       
H           58.84       25.9        -19.62      
C           57.35       26.38       -18.09      
C           57.02       26.07       -16.8       
C           62.91       23.67       -17.59      
C           62.24       23.33       -18.79      
S           61.69       24.56       -16.61      
H           60.34       23.59       -19.92      
H           62.79       22.7        -19.5       
C           60.89       23.73       -18.96      
C           60.53       24.51       -17.88      
C           69.21       21.92       -16.16      
C           68.59       22.43       -17.24      
C           68.35       21.69       -15.07      
C           67.2        22.76       -17.2       
C           66.36       22.5        -16.17      
C           66.49       23.45       -18.23      
C           67.01       21.94       -15.06      
C           66.22       21.59       -13.82      
N           64.87       21.78       -13.89      
C           64.21       22.27       -15.03      
C           67.26       23.72       -19.51      
N           68.59       23.29       -19.53      
C           69.28       22.61       -18.51      
O           66.79       24.4        -20.46      
O           70.5        22.44       -18.61      
O           66.75       21.01       -12.9       
O           63.02       22.27       -15.04      
C           64.1        20.9        -12.98      
C           69.25       23.27       -20.83      
H           64.51       19.92       -12.98      
H           63.14       20.68       -13.32      
H           64.03642    21.338      -11.9839    
H           70.15       23.74       -20.74      
H           68.71       23.92       -21.53      
H           69.33671    22.2801     -21.27798   
H           68.75       21.26       -14.16      
H           64.78       24.28       -19.15      
C           65.14       23.7        -18.29      
C           64.95       22.78       -16.19      
C           64.3        23.3        -17.24      
C           72.76       20.77       -14.93      
C           72.56       20.15       -16.09      
S           71.46       21.79       -14.49      
H           70.92       20.1        -17.62      
H           73.32       19.52       -16.6       
C           71.28       20.57       -16.68      
C           70.56       21.44       -15.88      
C           75.64       21.59       -12.24      
C           76.12       20.61       -13.12      
S           74.08       22.11       -12.88      
H           75.44       19.58       -14.92      
H           77.13       20.14       -13.13      
C           75.19       20.29       -14.13      
C           73.94       20.92       -14.13      
C           77.07       22.61       -8.86       
C           76.7        23.74       -9.56       
S           76.66       21.28       -9.87       
H           76.11       24.41       -11.47      
H           76.88       24.72       -9.22       
C           76.33       23.58       -10.86      
C           76.26       22.28       -11.16      
C           79.59       22.79       -2.7        
C           79.82       21.95       -3.82       
C           78.57       23.73       -2.86       
C           79.11       22.13       -5.08       
C           78.09       23.11       -5.19       
C           79.32       21.34       -6.25       
C           77.85       23.86       -4.04       
C           76.87       24.98       -4.03       
N           76.0        25.0        -5.13       
C           76.05       24.16       -6.23       
C           80.34       20.24       -6.22       
N           81.11       20.09       -5.07       
C           80.97       20.95       -3.93       
O           80.49       19.51       -7.2        
O           81.9        20.85       -3.12       
O           76.69       25.77       -3.08       
O           75.2        24.2        -7.1        
C           75.19       26.19       -5.39       
C           81.73       18.76       -4.85       
H           74.69       26.56       -4.49       
H           74.36       26.02       -6.07       
H           75.78481    26.97624    -5.85491    
H           82.62       18.97       -4.39       
H           81.96       18.3        -5.79       
H           81.16436    18.09089    -4.20158    
H           78.4        24.4        -2.05       
H           78.78       20.86       -8.19       
C           78.58       21.59       -7.38       
C           77.29       23.28       -6.36       
C           77.59       22.53       -7.49       
C           82.16       23.35       0.26        
C           81.48       22.22       0.59        
S           81.67       24.06       -1.25       
H           79.81       21.07       -0.34       
H           81.49       21.82       1.64        
C           80.47       21.96       -0.37       
C           80.43       22.79       -1.45       
C           84.76       24.84       2.88        
C           84.77       25.62       1.74        
S           83.67       23.51       2.6         
H           83.78       25.63       -0.23       
H           85.44       26.51       1.64        
C           83.91       25.13       0.72        
C           83.18       24.03       1.02        
C           86.93       25.98       5.94        
C           87.22       24.66       5.75        
S           85.59       26.45       4.94        
H           86.67       23.02       4.35        
H           88.02       24.18       6.32        
C           86.42       24.03       4.67        
C           85.65       24.97       4.04        
C           89.19       29.4        11.01       
C           89.0        29.76       9.69        
C           88.98       28.11       11.43       
C           88.45       28.79       8.87        
C           88.06       27.5        9.3         
C           88.34       28.99       7.47        
C           88.4        27.2        10.59       
C           88.08       25.9        11.28       
N           87.45       24.94       10.39       
C           87.02       25.22       9.1         
C           88.92       30.17       6.79        
N           89.51       31.12       7.64        
C           89.45       31.02       9.01        
O           88.88       30.25       5.56        
O           89.9        31.96       9.66        
O           88.39       25.66       12.47       
O           86.45       24.3        8.52        
C           87.1        23.63       11.04       
C           90.53       31.92       6.98        
H           86.4        23.07       10.47       
H           86.71       23.83       11.97       
H           88.00122    23.04102    11.21031    
H           90.76       32.64       7.72        
H           90.18       32.52       6.16        
H           91.4191     31.3455     6.72011     
H           88.99       28.03       12.55       
H           87.79       28.29       5.67        
C           87.77       28.05       6.68        
C           87.45       26.52       8.46        
C           87.31       26.79       7.09        
C           90.08       31.52       14.31       
C           91.13       31.58       13.41       
S           88.78       30.6        13.58       
H           91.62       30.77       11.46       
H           91.98       32.16       13.62       
C           90.91       30.79       12.28       
C           89.76       30.23       12.11       
C           90.1        33.9        17.49       
C           88.96       33.15       17.59       
S           91.05       33.35       16.11       
H           87.92       31.7        16.29       
H           88.17       33.27       18.35       
C           88.8        32.32       16.41       
C           89.85       32.26       15.5        
C           92.2        36.81       18.91       
C           91.4        36.37       19.94       
S           91.81       35.86       17.53       
H           89.86       34.73       20.23       
H           91.39       36.82       20.96       
C           90.51       35.29       19.54       
C           90.66       34.86       18.3        
C           95.59       42.35       19.88       
C           94.74       41.91       18.87       
C           95.95       41.45       20.86       
C           94.14       40.67       18.91       
C           94.52       39.71       19.95       
C           93.27       40.18       17.95       
C           95.49       40.13       20.9        
C           96.19       39.25       21.93       
N           95.64       37.91       21.79       
C           94.72       37.5        20.86       
C           92.99       40.98       16.72       
N           93.61       42.24       16.73       
C           94.4        42.79       17.74       
O           92.11       40.71       15.88       
O           94.74       43.96       17.59       
O           96.95       39.67       22.67       
O           94.35       36.31       20.92       
C           96.18       36.7        22.54       
C           94.04       42.72       15.41       
H           96.35       35.9        21.86       
H           95.4        36.32       23.23       
H           97.14034    36.85633    23.03134    
H           94.33       43.78       15.43       
H           93.17       42.49       14.75       
H           94.91497    42.17129    15.0615     
H           96.52       41.74       21.68       
H           92.03       38.66       17.3        
C           92.79       38.87       17.98       
C           94.09       38.39       19.84       
C           93.24       37.91       18.92       
C           97.42       45.71       20.84       
C           96.09       46.02       20.68       
S           97.74       44.11       20.35       
H           94.28       44.82       20.07       
H           95.63       46.98       20.94       
C           95.35       44.85       20.2        
C           96.12       43.74       20.08       
C           100.47      47.24       22.84       
C           99.36       48.11       22.78       
S           100.12      45.81       21.93       
H           97.43       48.19       21.74       
H           99.37       49.1        23.29       
C           98.28       47.65       22.03       
C           98.48       46.41       21.57       
C           103.96      48.6        24.01       
C           103.58      47.53       24.78       
S           102.7       48.84       22.85       
H           101.92      45.95       24.82       
H           104.23      47.11       25.48       
C           102.39      46.8        24.31       
C           101.72      47.51       23.37       
C           110.1       50.92       24.19       
C           108.89      51.47       24.64       
C           110.05      49.59       23.82       
C           107.77      50.72       24.57       
C           107.73      49.41       24.02       
C           106.47      51.21       24.93       
C           108.93      48.85       23.62       
C           109.13      47.42       23.16       
N           107.96      46.73       23.02       
C           106.67      47.29       23.17       
C           106.34      52.56       25.46       
N           107.44      53.33       25.47       
C           108.73      52.91       25.02       
O           105.28      53.02       25.88       
O           109.64      53.69       25.06       
O           110.2       46.9        22.99       
O           105.7       46.51       22.84       
C           108.02      45.57       22.12       
C           107.28      54.71       25.88       
H           108.82      45.78       21.45       
H           107.18      45.56       21.46       
H           108.16432   44.63913    22.66842    
H           108.24      54.99       26.33       
H           106.56      54.78       26.66       
H           106.94044   55.42449    25.13014    
H           111.01      49.18       23.53       
H           104.34      51.01       24.8        
C           105.31      50.53       24.61       
C           106.55      48.63       23.83       
C           105.31      49.22       24.09       
C           113.87      51.67       24.97       
C           113.7       51.52       23.64       
S           112.31      51.63       25.75       
H           112.08      50.97       22.23       
H           114.51      51.61       22.93       
C           112.32      51.25       23.27       
C           111.47      51.41       24.29       
C           116.49      52.61       27.67       
C           117.24      52.24       26.62       
S           114.81      52.62       27.33       
H           116.91      51.45       24.63       
H           118.31      52.07       26.62       
C           116.45      51.92       25.46       
C           115.08      51.91       25.74       
C           117.52      53.88       31.21       
C           118.64      53.81       30.45       
S           116.11      53.55       30.26       
H           119.23      53.23       28.43       
H           119.65      54.21       30.84       
C           118.39      53.4        29.12       
C           117.07      53.14       28.89       
C           118.65      56.22       37.28       
C           117.85      56.65       36.16       
C           119.23      55.01       37.17       
C           117.74      55.76       35.04       
C           118.4       54.56       34.87       
C           116.93      56.12       33.98       
C           119.21      54.18       36.0        
C           119.93      52.84       36.01       
N           119.94      52.08       34.78       
C           119.26      52.5        33.6        
C           116.16      57.39       33.9        
N           116.19      58.13       35.06       
C           117.05      57.9        36.19       
O           115.46      57.71       32.93       
O           117.1       58.74       36.99       
O           120.71      52.61       36.9        
O           119.22      51.8        32.53       
C           121.16      51.28       34.53       
C           115.42      59.4        34.95       
H           122.09      51.85       34.81       
H           121.24      50.93       33.46       
H           121.153     50.32851    35.06171    
H           115.29      59.7        35.97       
H           114.51      59.2        34.41       
H           115.85256   60.17587    34.31832    
H           119.91      54.63       37.94       
H           116.24      55.75       32.01       
C           116.88      55.39       32.83       
C           118.37      53.76       33.68       
C           117.54      54.19       32.63       
C           119.25      57.27       41.07       
C           119.22      58.36       40.35       
S           119.11      55.9        40.11       
H           119.07      58.86       38.14       
H           119.26      59.35       40.78       
C           119.09      58.12       38.96       
C           119.0       56.8        38.57       
C           119.28      57.34       45.01       
C           119.82      56.2        44.57       
S           118.7       58.25       43.62       
H           119.97      55.07       42.73       
H           120.09      55.38       45.28       
C           119.68      56.0        43.18       
C           119.35      57.12       42.51       
H           59.75       8.87        40.97       
H           119.16      57.55       46.06       
