512

C           59.43       32.02       40.21       
C           60.29       31.47       41.15       
S           58.01       32.55       41.08       
H           60.41       31.19       43.32       
H           61.25       31.09       40.89       
C           59.84       31.63       42.52       
C           58.53       31.98       42.61       
C           62.04       33.81       34.44       
C           60.85       34.23       35.14       
C           62.58       32.59       34.78       
C           60.46       33.5        36.26       
C           61.17       32.41       36.76       
C           59.37       33.87       37.03       
C           62.21       31.91       35.88       
C           63.02       30.7        36.17       
N           62.44       29.91       37.19       
C           61.46       30.4        38.13       
C           58.52       35.06       36.7        
N           58.8        35.65       35.49       
C           59.95       35.38       34.72       
O           57.58       35.47       37.38       
O           60.23       36.12       33.8        
O           64.03       30.36       35.54       
O           61.16       29.59       38.99       
C           63.09       28.58       37.4        
C           57.76       36.53       34.88       
H           62.46       27.95       38.06       
H           63.25       28.09       36.45       
H           64.07931    28.70099    37.84128    
H           58.2        37.5        34.68       
H           56.99       36.76       35.65       
H           57.22413    36.114      34.02684    
H           63.52       32.23       34.24       
H           58.35       33.79       38.85       
C           59.03       33.27       38.2        
C           60.71       31.72       37.92       
C           59.67       32.18       38.76       
C           63.07       34.94       30.71       
C           63.47       35.83       31.66       
S           62.24       33.68       31.61       
H           63.45       36.34       33.73       
H           64.05       36.69       31.35       
C           63.12       35.58       32.99       
C           62.57       34.36       33.2        
C           63.43       34.03       26.96       
C           64.44       34.92       27.26       
S           62.54       33.63       28.36       
H           65.12       36.07       29.1        
H           65.13       35.31       26.47       
C           64.4        35.41       28.62       
C           63.42       34.78       29.35       
C           62.58       31.83       23.75       
C           63.53       32.76       23.46       
S           62.29       31.95       25.44       
H           64.79       34.23       24.56       
H           63.93       32.87       22.44       
C           63.94       33.6        24.55       
C           63.25       33.37       25.66       
C           59.36       28.34       19.05       
C           59.22       28.43       20.42       
C           60.44       28.93       18.49       
C           60.14       29.1        21.24       
C           61.31       29.66       20.69       
C           59.99       29.36       22.61       
C           61.43       29.5        19.29       
C           62.7        29.89       18.58       
N           63.75       30.28       19.41       
C           63.58       30.61       20.81       
C           58.83       28.71       23.31       
N           58.0        27.9        22.52       
C           58.11       27.83       21.13       
O           58.77       28.85       24.47       
O           57.31       27.2        20.59       
O           62.84       29.61       17.41       
O           64.57       30.92       21.35       
C           65.02       30.75       18.81       
C           57.4        26.73       23.17       
H           65.67       31.24       19.51       
H           64.78       31.51       18.09       
H           65.57952    29.95675    18.31422    
H           56.47       26.37       22.66       
H           57.08       26.98       24.18       
H           58.17404    25.97746    23.32051    
H           60.5        28.98       17.4        
H           60.42       30.48       24.34       
C           60.81       30.19       23.33       
C           62.25       30.39       21.48       
C           62.0        30.76       22.84       
C           56.52       26.97       16.53       
C           57.67       26.26       16.4        
S           56.73       28.22       17.75       
H           59.67       26.3        17.3        
H           57.82       25.49       15.68       
C           58.73       26.78       17.27       
C           58.37       27.79       18.05       
C           52.8        26.91       15.26       
C           53.42       25.69       15.0        
S           53.96       27.97       16.02       
H           55.41       24.8        15.12       
H           52.81       25.01       14.43       
C           54.78       25.66       15.38       
C           55.19       26.74       16.03       
C           49.33       27.89       13.88       
C           49.79       28.96       14.68       
S           50.44       26.56       13.9        
H           51.58       29.42       15.82       
H           49.2        29.86       14.81       
C           51.08       28.71       15.21       
C           51.51       27.46       14.91       
C           43.23       28.21       11.36       
C           43.9        27.45       12.3        
C           44.02       29.17       10.66       
C           45.25       27.61       12.59       
C           46.08       28.61       11.95       
C           45.88       26.73       13.51       
C           45.36       29.44       11.04       
C           46.04       30.52       10.37       
N           47.33       30.8        10.78       
C           48.01       29.92       11.6        
C           45.18       25.56       14.17       
N           43.87       25.5        13.88       
C           43.14       26.39       13.04       
O           45.75       24.89       14.99       
O           41.96       26.11       12.83       
O           45.35       31.24       9.63        
O           49.15       30.31       11.97       
C           47.88       32.12       10.39       
C           43.04       24.49       14.66       
H           47.59       32.22       9.34        
H           48.99       32.12       10.4        
H           47.51799    32.95758    10.98624    
H           42.16       24.96       15.03       
H           43.58       24.3        15.63       
H           42.85377    23.54506    14.1496     
H           43.63       29.65       9.79        
H           47.66       26.12       14.4        
C           47.24       26.93       13.8        
C           47.4        28.74       12.28       
C           48.03       27.91       13.23       
C           40.13       26.9        9.45        
C           39.69       27.38       10.67       
S           41.8        27.42       9.16        
H           40.65       28.45       12.39       
H           38.72       27.18       11.12       
C           40.74       28.09       11.4        
C           41.93       28.04       10.75       
C           39.24       24.9        6.38        
C           38.09       25.13       7.01        
S           40.49       25.54       7.35        
H           37.34       26.08       8.77        
H           37.11       24.77       6.57        
C           38.23       25.86       8.19        
C           39.47       26.09       8.5         
C           40.75       23.25       3.27        
C           39.61       23.88       2.93        
S           41.07       23.52       4.95        
H           37.93       25.0        3.95        
H           39.25       23.9        1.89        
C           38.91       24.5        4.0         
C           39.56       24.36       5.11        
C           45.47       19.74       0.44        
C           44.85       20.89       0.03        
C           44.96       19.01       1.49        
C           43.71       21.39       0.75        
C           43.13       20.63       1.85        
C           43.15       22.65       0.5         
C           43.78       19.41       2.17        
C           43.32       18.63       3.35        
N           42.14       19.06       4.02        
C           41.47       20.24       3.69        
C           43.61       23.51       -0.58       
N           44.8        23.09       -1.22       
C           45.42       21.81       -0.99       
O           43.23       24.6        -0.69       
O           46.57       21.78       -1.39       
O           43.91       17.67       3.81        
O           40.52       20.45       4.37        
C           41.44       18.03       4.89        
C           45.36       23.93       -2.28       
H           41.63       17.0        4.55        
H           40.38       18.19       4.96        
H           41.7143     18.13972    5.9392      
H           46.42       24.0        -2.2        
H           45.05       24.95       -2.1        
H           45.07762    23.55808    -3.2649     
H           45.52       18.14       1.83        
H           41.76       24.08       1.05        
C           42.11       23.11       1.31        
C           42.02       21.1        2.6         
C           41.54       22.38       2.41        
C           49.28       18.5        -0.18       
C           48.42       17.66       -0.9        
S           48.36       19.71       0.66        
H           46.22       17.5        -1.18       
H           48.77       16.78       -1.47       
C           47.04       18.0        -0.7        
C           46.8        19.23       0.04        
C           52.97       18.87       0.98        
C           52.96       18.2        -0.24       
S           51.37       19.45       1.38        
H           51.42       17.41       -1.66       
H           53.83       17.86       -0.71       
C           51.69       17.98       -0.78       
C           50.67       18.54       -0.01       
C           56.1        20.35       2.97        
C           55.0        20.4        3.82        
S           55.72       19.63       1.44        
H           52.83       20.12       3.66        
H           55.03       20.85       4.82        
C           53.82       20.04       3.14        
C           54.04       19.47       1.84        
C           61.44       22.82       5.8         
C           60.63       23.27       4.73        
C           61.18       21.5        6.25        
C           59.58       22.41       4.25        
C           59.31       21.15       4.84        
C           58.76       22.86       3.18        
C           60.12       20.7        5.86        
C           60.04       19.3        6.46        
N           58.91       18.6        5.99        
C           58.07       19.01       4.96        
C           58.99       24.14       2.53        
N           60.11       24.82       2.96        
C           60.91       24.53       4.04        
O           58.21       24.58       1.76        
O           61.81       25.3        4.27        
O           60.81       18.95       7.36        
O           57.09       18.28       4.7         
C           58.98       17.16       6.22        
C           60.77       25.59       1.88        
H           60.01       16.81       5.95        
H           58.23       16.64       5.57        
H           58.75107    16.83806    7.2359      
H           61.04       26.53       2.38        
H           60.08       25.86       1.08        
H           61.67283    25.12082    1.48901     
H           61.95       21.06       6.84        
H           56.83       22.49       2.14        
C           57.63       22.13       2.88        
C           58.26       20.34       4.36        
C           57.38       20.87       3.47        
C           64.66       24.38       7.45        
C           63.68       25.3        7.46        
S           64.11       22.86       6.83        
H           61.6        25.36       7.11        
H           63.85       26.36       7.76        
C           62.46       24.79       6.99        
C           62.53       23.5        6.52        
C           67.77       25.18       9.76        
C           68.17       24.35       8.77        
S           66.08       25.56       9.51        
H           67.23       23.16       7.17        
H           69.14       23.92       8.7         
C           67.1        23.88       7.92        
C           65.9        24.48       8.16        
C           70.14       26.88       12.49       
C           68.84       26.96       12.89       
S           70.2        26.03       10.96       
H           66.82       26.13       12.11       
H           68.55       27.28       13.88       
C           67.9        26.37       11.93       
C           68.49       25.79       10.89       
C           74.76       29.49       16.48       
C           73.58       29.96       15.9        
C           75.07       28.13       16.22       
C           72.74       29.1        15.06       
C           73.14       27.81       14.79       
C           71.59       29.64       14.38       
C           74.34       27.37       15.36       
C           74.84       25.97       15.16       
N           74.06       25.19       14.27       
C           72.88       25.63       13.68       
C           71.08       30.96       14.55       
N           71.87       31.77       15.36       
C           73.07       31.36       16.08       
O           70.06       31.43       14.02       
O           73.58       32.13       16.86       
O           75.83       25.52       15.76       
O           72.18       24.92       12.96       
C           74.2        23.7        14.25       
C           71.65       33.21       15.58       
H           73.82       23.21       13.36       
H           73.65       23.34       15.11       
H           75.22538    23.33973    14.16686    
H           71.9        33.52       16.59       
H           70.63       33.42       15.55       
H           72.02883    33.78169    14.7328     
H           75.94       27.77       16.71       
H           69.89       29.16       13.15       
C           70.84       28.79       13.63       
C           72.39       27.01       13.89       
C           71.19       27.47       13.33       
C           78.02       30.92       17.84       
C           77.16       31.01       18.9        
S           77.3        30.4        16.36       
H           75.03       30.64       19.12       
H           77.45       31.42       19.88       
C           75.88       30.63       18.46       
C           75.83       30.14       17.18       
C           81.69       32.13       18.39       
C           81.64       31.71       17.08       
S           80.21       31.99       19.27       
H           80.04       31.05       15.73       
H           82.47       31.84       16.4        
C           80.33       31.22       16.72       
C           79.41       31.33       17.81       
C           84.81       34.18       19.57       
C           84.12       33.83       20.67       
S           84.06       33.45       18.25       
H           82.17       32.82       21.25       
H           84.38       34.15       21.69       
C           82.88       33.06       20.44       
C           82.74       32.74       19.1        
C           89.65       38.63       19.84       
C           88.8        38.26       18.82       
C           89.77       37.87       20.99       
C           87.96       37.15       19.03       
C           87.93       36.47       20.22       
C           86.98       36.78       18.11       
C           88.88       36.89       21.24       
C           88.81       36.35       22.64       
N           87.96       35.23       22.85       
C           87.18       34.66       21.83       
C           86.91       37.44       16.76       
N           87.79       38.48       16.53       
C           88.62       39.0        17.54       
O           86.06       37.15       15.98       
O           89.23       40.08       17.32       
O           89.55       36.79       23.47       
O           86.55       33.69       22.2        
C           88.01       34.51       24.19       
C           87.88       39.08       15.14       
H           88.95       34.11       24.47       
H           87.33       33.69       24.17       
H           87.62919    35.14712    24.98823    
H           88.07       40.11       15.23       
H           86.85       39.01       14.75       
H           88.55472    38.49328    14.51661    
H           90.49       38.12       21.78       
H           85.56       35.56       17.49       
C           86.13       35.76       18.38       
C           87.05       35.35       20.49       
C           86.16       34.91       19.53       
C           92.59       41.04       20.76       
C           92.79       40.71       19.45       
S           91.04       40.48       21.34       
H           91.75       39.38       17.88       
H           93.59       41.11       18.85       
C           91.73       39.82       18.92       
C           90.78       39.57       19.86       
C           94.51       42.69       23.73       
C           95.06       43.14       22.53       
S           93.45       41.36       23.31       
H           94.57       43.1        20.37       
H           95.85       43.87       22.53       
C           94.38       42.67       21.36       
C           93.47       41.77       21.63       
C           96.46       43.28       27.06       
C           95.3        42.65       27.37       
S           96.52       43.47       25.3        
H           93.61       41.63       26.29       
H           95.08       42.27       28.36       
C           94.47       42.27       26.28       
C           94.93       42.82       25.14       
C           100.46      46.65       31.22       
C           100.63      46.09       29.98       
C           99.33       46.38       31.88       
C           99.59       45.4        29.36       
C           98.38       45.11       30.02       
C           99.7        44.79       28.12       
C           98.28       45.67       31.31       
C           97.11       45.61       32.1        
N           95.97       45.04       31.5        
C           95.93       44.63       30.14       
C           101.02      44.76       27.36       
N           102.05      45.52       27.98       
C           101.97      46.13       29.25       
O           101.16      44.15       26.27       
O           102.95      46.64       29.78       
O           97.05       45.98       33.28       
O           94.87       44.19       29.72       
C           94.63       45.46       32.01       
C           103.31      45.67       27.31       
H           93.85       45.35       31.34       
H           94.58       46.54       32.11       
H           94.38165    44.99089    32.96203    
H           103.62      46.77       27.45       
H           103.19      45.56       26.2        
H           104.05777   44.95784    27.65896    
H           99.09       46.74       32.84       
H           98.92       43.62       26.6        
C           98.63       44.1        27.56       
C           97.24       44.51       29.37       
C           97.39       43.97       28.11       
C           102.33      49.1        33.64       
C           102.6       49.52       32.38       
S           101.21      47.79       33.7        
H           102.19      48.81       30.3        
H           103.35      50.23       32.11       
C           102.04      48.64       31.38       
C           101.23      47.69       31.93       
C           103.68      51.21       36.66       
C           103.22      50.07       37.16       
S           103.7       51.2        34.93       
H           102.19      48.25       36.43       
H           103.26      49.87       38.2        
C           102.66      49.26       36.18       
C           102.84      49.7        34.9        
C           105.71      53.45       39.1        
C           105.05      54.27       38.17       
S           105.24      51.79       38.87       
H           103.96      54.01       36.26       
H           105.19      55.36       38.15       
C           104.38      53.53       37.14       
C           104.36      52.17       37.46       
C           108.64      55.12       44.85       
C           107.62      55.76       44.1        
C           109.31      53.98       44.35       
C           107.25      55.13       42.86       
C           107.93      54.03       42.23       
C           106.15      55.58       42.11       
C           109.01      53.46       43.06       
C           109.91      52.39       42.48       
N           109.44      51.77       41.2        
C           108.4       52.37       40.43       
C           105.29      56.67       42.65       
N           105.6       57.23       43.91       
C           106.73      56.85       44.65       
O           104.26      57.08       42.06       
O           106.87      57.32       45.79       
O           110.66      51.73       43.2        
O           108.2       51.86       39.32       
C           110.54      51.11       40.57       
C           104.9       58.39       44.44       
H           111.48      51.53       41.01       
H           110.61      51.36       39.53       
H           110.41324   50.03958    40.73197    
H           104.84      58.39       45.51       
H           103.93      58.33       43.94       
H           105.4461    59.27916    44.12494    
H           110.11      53.56       44.94       
H           104.93      55.51       40.43       
C           105.8       55.06       40.88       
C           107.58      53.49       40.98       
C           106.45      53.97       40.3        
C           110.59      56.17       48.09       
C           109.36      55.65       48.45       
S           110.72      56.02       46.33       
H           107.54      54.74       47.45       
H           109.01      55.45       49.51       
C           108.51      55.24       47.34       
C           109.12      55.42       46.16       
C           113.94      57.44       49.74       
C           113.2       56.79       50.72       
S           113.17      57.21       48.23       
H           111.19      56.05       50.95       
H           113.47      56.73       51.69       
C           111.95      56.37       50.29       
C           111.74      56.45       48.89       
C           117.72      58.32       50.33       
C           117.26      59.36       49.64       
S           116.43      57.14       50.76       
H           115.29      59.94       48.73       
H           117.9       60.19       49.22       
C           115.88      59.14       49.24       
C           115.28      57.97       49.77       
C           123.9       57.77       52.89       
C           123.17      57.08       51.9        
C           123.14      58.82       53.49       
C           121.83      57.42       51.59       
C           121.14      58.49       52.22       
C           121.06      56.7        50.62       
C           121.86      59.19       53.23       
C           121.35      60.3        54.0        
N           119.98      60.61       53.69       
C           119.28      60.05       52.58       
C           121.54      55.45       49.97       
N           122.89      55.13       50.31       
C           123.71      55.9        51.2        
O           120.81      54.81       49.23       
O           124.91      55.59       51.23       
O           122.01      60.91       54.89       
O           118.13      60.46       52.32       
C           119.5       61.89       54.22       
C           123.4       53.81       49.92       
H           118.64      62.18       53.73       
H           120.33      62.62       54.14       
H           119.2623    61.84106    55.28264    
H           124.4       53.86       49.51       
H           122.78      53.58       49.04       
H           123.25289   53.06044    50.69758    
H           123.74      59.47       54.21       
H           119.22      56.46       49.72       
C           119.78      57.09       50.32       
C           119.87      58.9        51.8        
C           119.16      58.2        50.86       
C           127.37      56.65       54.39       
C           127.39      58.03       54.24       
S           125.79      56.06       53.98       
H           126.09      59.67       53.48       
H           128.29      58.56       54.48       
C           126.25      58.61       53.64       
C           125.25      57.6        53.37       
C           130.48      54.69       55.36       
C           129.52      53.78       55.16       
S           129.94      56.32       55.11       
H           127.34      53.83       54.68       
H           129.63      52.78       55.22       
C           128.23      54.38       54.82       
C           128.3       55.73       54.77       
H           57.87       31.69       43.4        
H           131.54      54.48       55.28       
