512

C           63.05       23.63       29.01       
C           63.29       23.51       30.34       
S           63.66       22.19       28.18       
H           64.38       22.0        31.62       
H           62.84       24.18       31.05       
C           64.0        22.33       30.66       
C           64.31       21.47       29.62       
C           60.48       28.83       25.85       
C           61.36       28.68       27.01       
C           59.92       27.66       25.39       
C           61.85       27.4        27.4        
C           61.27       26.19       26.79       
C           62.76       27.25       28.44       
C           60.25       26.36       25.8        
C           59.46       25.21       25.23       
N           59.88       24.01       25.78       
C           60.9        23.69       26.7        
C           63.24       28.36       29.19       
N           62.76       29.64       28.79       
C           61.9        29.83       27.78       
O           63.91       28.26       30.2        
O           61.63       30.98       27.51       
O           58.52       25.39       24.52       
O           60.92       22.57       27.13       
C           59.25       22.91       25.07       
C           63.08       30.73       29.73       
H           59.0        23.14       24.01       
H           59.94       22.05       25.15       
H           58.31716    22.72343    25.60207    
H           63.16       31.62       29.24       
H           64.03       30.58       30.28       
H           62.42381    30.82075    30.59561    
H           59.25       27.78       24.54       
H           63.84       25.9        29.72       
C           63.07       25.97       28.93       
C           61.59       24.86       27.34       
C           62.45       24.84       28.39       
C           59.58       31.79       23.4        
C           58.83       32.0        24.53       
S           60.43       30.3        23.45       
H           58.79       31.05       26.6        
H           58.19       32.87       24.62       
C           59.19       30.99       25.54       
C           60.02       30.02       25.14       
C           59.53       34.51       20.7        
C           59.97       33.36       20.09       
S           59.12       34.25       22.35       
H           60.52       31.31       20.8        
H           60.4        33.24       19.12       
C           60.11       32.24       21.04       
C           59.59       32.57       22.26       
C           57.93       37.9        19.26       
C           58.95       37.42       18.4        
S           57.85       36.72       20.54       
H           60.42       35.88       18.34       
H           59.25       37.99       17.49       
C           59.56       36.24       18.83       
C           59.13       35.7        20.0        
C           53.77       42.96       18.0        
C           54.78       42.79       18.92       
C           53.54       41.9        17.06       
C           55.53       41.55       18.97       
C           55.37       40.49       17.98       
C           56.54       41.3        19.92       
C           54.27       40.66       17.13       
C           53.76       39.69       16.21       
N           54.54       38.52       16.08       
C           55.7        38.27       16.89       
C           56.92       42.3        20.99       
N           56.27       43.53       20.83       
C           55.21       43.88       19.89       
O           57.84       42.1        21.78       
O           54.8        45.03       19.84       
O           52.69       39.83       15.6        
O           56.25       37.24       16.75       
C           53.94       37.35       15.35       
C           56.47       44.56       21.89       
H           52.95       37.14       15.64       
H           54.53       36.43       15.66       
H           54.01475    37.47232    14.26947    
H           56.57       45.59       21.5        
H           57.4        44.37       22.5        
H           55.62502    44.53956    22.57825    
H           52.85       42.04       16.32       
H           57.9        39.85       20.77       
C           57.2        40.02       19.93       
C           56.16       39.29       17.92       
C           57.05       39.0        18.93       
C           51.34       45.7        16.62       
C           51.17       45.67       17.98       
S           52.47       44.49       16.1        
H           52.23       44.57       19.69       
H           50.4        46.26       18.49       
C           52.14       44.77       18.58       
C           52.83       44.06       17.7        
C           49.67       47.2        13.41       
C           49.21       47.89       14.44       
S           50.89       46.06       13.97       
H           49.4        47.86       16.72       
H           48.47       48.65       14.33       
C           49.74       47.47       15.72       
C           50.59       46.41       15.63       
C           48.52       47.78       9.83        
C           49.44       46.85       9.83        
S           48.28       48.44       11.37       
H           50.97       45.99       11.15       
H           49.77       46.32       8.93        
C           49.99       46.52       11.1        
C           49.37       47.23       12.03       
C           46.46       48.81       3.65        
C           46.33       47.72       4.54        
C           46.76       50.06       4.19        
C           46.72       47.89       5.88        
C           47.06       49.12       6.47        
C           46.77       46.8        6.76        
C           46.97       50.21       5.54        
C           47.29       51.59       6.06        
N           47.7        51.68       7.41        
C           47.97       50.61       8.32        
C           46.36       45.39       6.33        
N           45.77       45.31       5.01        
C           45.84       46.39       4.08        
O           46.17       44.55       7.19        
O           45.48       46.15       2.93        
O           47.23       52.59       5.4         
O           48.55       50.86       9.34        
C           47.37       53.01       8.0         
C           45.61       44.0        4.33        
H           47.82       53.84       7.38        
H           47.89       52.99       8.98        
H           46.2988     53.14559    8.14915     
H           44.79       44.02       3.61        
H           45.32       43.24       5.07        
H           46.53121    43.6022     3.90429     
H           46.78       50.92       3.59        
H           47.31       46.04       8.63        
C           47.33       46.88       8.0         
C           47.54       49.24       7.86        
C           47.79       48.07       8.54        
C           46.19       48.26       -0.28       
C           45.23       49.11       0.14        
S           47.22       47.82       1.09        
H           44.66       50.19       1.99        
H           44.4        49.47       -0.51       
C           45.36       49.48       1.52        
C           46.35       48.79       2.23        
C           47.06       46.23       -3.5        
C           45.91       46.93       -3.73       
S           47.54       46.49       -1.89       
H           44.81       48.63       -2.79       
H           45.41       46.86       -4.7        
C           45.63       47.9        -2.72       
C           46.42       47.73       -1.6        
C           49.72       44.39       -5.6        
C           48.5        44.13       -6.25       
S           49.51       45.41       -4.26       
H           46.35       44.71       -5.92       
H           48.42       43.5        -7.16       
C           47.4        44.7        -5.54       
C           47.77       45.36       -4.42       
C           55.6        41.28       -6.46       
C           55.17       42.6        -6.75       
C           54.56       40.35       -6.16       
C           53.75       42.95       -6.59       
C           52.78       42.1        -6.17       
C           53.28       44.31       -6.82       
C           53.24       40.74       -6.05       
C           52.27       39.58       -5.79       
N           50.95       40.0        -5.46       
C           50.41       41.31       -5.48       
C           54.22       45.4        -7.26       
N           55.61       45.02       -7.3        
C           56.09       43.68       -7.13       
O           53.83       46.54       -7.58       
O           57.3        43.58       -7.3        
O           52.66       38.42       -5.91       
O           49.26       41.5        -5.08       
C           49.99       38.93       -5.35       
C           56.48       46.15       -7.54       
H           49.98       38.47       -6.35       
H           48.94       39.17       -5.1        
H           50.19681    38.08896    -4.6882     
H           57.49       45.89       -7.16       
H           56.1        46.83       -6.77       
H           56.59917    46.49262    -8.56787    
H           54.75       39.34       -5.84       
H           51.62       45.61       -6.57       
C           51.95       44.59       -6.47       
C           51.4        42.44       -5.82       
C           51.03       43.73       -5.89       
C           59.09       39.39       -5.89       
C           59.07       39.96       -7.12       
S           57.62       39.76       -5.08       
H           57.84       41.38       -8.22       
H           59.93       39.83       -7.86       
C           57.91       40.72       -7.35       
C           57.03       40.75       -6.35       
C           61.86       37.36       -4.01       
C           61.94       36.99       -5.34       
S           60.52       38.39       -3.66       
H           60.78       37.63       -7.12       
H           62.72       36.38       -5.73       
C           60.89       37.72       -6.05       
C           60.08       38.52       -5.36       
C           64.62       36.51       -1.34       
C           63.47       36.83       -0.64       
S           64.37       36.77       -3.04       
H           61.34       37.02       -1.07       
H           63.41       36.87       0.5         
C           62.4        37.02       -1.47       
C           62.69       37.09       -2.82       
C           70.56       35.42       1.48        
C           69.69       36.51       1.39        
C           70.14       34.23       0.77        
C           68.48       36.4        0.63        
C           68.02       35.26       0.0         
C           67.56       37.52       0.68        
C           68.96       34.18       0.06        
C           68.59       32.89       -0.5        
N           67.46       32.86       -1.37       
C           66.53       33.96       -1.5        
C           67.93       38.82       1.33        
N           69.17       38.82       2.04        
C           70.04       37.76       2.15        
O           67.18       39.8        1.23        
O           71.07       37.88       2.87        
O           69.35       31.94       -0.37       
O           65.59       33.85       -2.36       
C           67.6        31.98       -2.64       
C           69.73       40.14       2.39        
H           68.57       32.16       -3.12       
H           66.9        32.26       -3.45       
H           67.54358    30.91511    -2.41433    
H           70.39       40.11       3.21        
H           68.95       40.84       2.69        
H           70.23838    40.54813    1.51645     
H           70.82       33.38       0.73        
H           65.73       38.25       0.01        
C           66.35       37.41       0.01        
C           66.84       35.26       -0.72       
C           65.91       36.32       -0.72       
C           74.37       35.56       2.52        
C           73.72       34.82       3.45        
S           73.29       36.0        1.23        
H           71.54       34.31       3.97        
H           74.27       34.32       4.26        
C           72.28       34.79       3.28        
C           71.94       35.33       2.04        
C           78.31       35.72       2.77        
C           77.92       36.49       1.71        
S           76.92       34.91       3.43        
H           76.18       37.13       0.68        
H           78.6        37.18       1.22        
C           76.54       36.47       1.47        
C           75.8        35.71       2.34        
C           81.6        34.18       4.25        
C           81.86       35.43       3.71        
S           79.88       33.97       4.21        
H           80.91       36.84       2.44        
H           82.85       35.86       3.66        
C           80.77       36.01       3.05        
C           79.62       35.37       3.26        
C           85.24       29.83       7.64        
C           85.22       30.18       6.25        
C           84.47       30.61       8.5         
C           84.3        31.29       5.84        
C           83.59       32.07       6.74        
C           84.21       31.65       4.46        
C           83.72       31.74       8.12        
C           82.94       32.39       9.19        
N           81.99       33.32       8.69        
C           81.8        33.6        7.33        
C           85.1        30.96       3.46        
N           85.91       29.93       3.9         
C           86.04       29.45       5.23        
O           85.04       31.39       2.28        
O           86.84       28.54       5.41        
O           83.19       32.2        10.32       
O           81.02       34.55       6.97        
C           81.26       34.3        9.6         
C           86.87       29.4        2.93        
H           81.13       35.22       9.09        
H           81.95       34.56       10.36       
H           80.3475     33.84734    9.98799     
H           87.82       29.12       3.43        
H           87.16       30.19       2.2         
H           86.51149    28.47505    2.47828     
H           84.32       30.28       9.57        
H           83.37       32.95       3.06        
C           83.39       32.63       4.07        
C           82.65       32.96       6.28        
C           82.52       33.23       4.93        
C           86.82       26.99       9.82        
C           86.42       26.48       8.59        
S           86.5        28.7        9.88        
H           85.36       27.22       6.8         
H           86.54       25.42       8.3         
C           85.83       27.44       7.79        
C           85.88       28.67       8.32        
C           88.68       26.02       13.08       
C           88.79       24.95       12.26       
S           87.93       27.46       12.29       
H           88.14       24.4        10.32       
H           89.18       24.06       12.64       
C           88.23       25.21       11.01       
C           87.64       26.46       10.88       
C           89.59       25.39       16.93       
C           89.17       26.66       16.84       
S           89.52       24.71       15.33       
H           88.51       28.11       15.2        
H           89.18       27.29       17.68       
C           88.75       27.06       15.47       
C           88.89       26.06       14.55       
C           93.22       24.07       22.18       
C           93.26       23.61       20.85       
C           92.15       24.85       22.6        
C           92.12       23.85       20.01       
C           91.11       24.77       20.44       
C           92.16       23.48       18.66       
C           91.1        25.17       21.82       
C           90.07       26.01       22.42       
N           88.97       26.31       21.5        
C           89.03       26.09       20.12       
C           93.23       22.68       18.04       
N           94.31       22.5        18.92       
C           94.46       23.03       20.19       
O           93.15       22.17       16.9        
O           95.61       22.99       20.67       
O           89.97       26.4        23.57       
O           88.0        26.33       19.53       
C           87.89       27.1        22.11       
C           95.24       21.48       18.57       
H           87.37       27.65       21.38       
H           88.42       27.89       22.73       
H           87.31591    26.4381     22.75839    
H           96.19       21.83       18.28       
H           94.84       21.08       17.62       
H           95.25423    20.6193     19.23865    
H           92.18       25.31       23.59       
H           91.27       23.7        16.82       
C           91.1        23.94       17.83       
C           90.07       25.22       19.54       
C           90.07       24.82       18.18       
C           96.17       23.9        24.83       
C           95.99       22.62       24.28       
S           94.89       24.97       24.27       
H           94.5        21.68       22.89       
H           96.68       21.84       24.52       
C           94.82       22.57       23.44       
C           94.21       23.8        23.22       
C           99.21       25.07       27.06       
C           98.43       26.14       26.76       
S           98.61       23.63       26.25       
H           96.62       26.55       25.67       
H           98.71       27.16       27.11       
C           97.38       25.84       25.96       
C           97.25       24.52       25.59       
C           102.68      25.92       28.83       
C           102.55      24.6        28.84       
S           101.31      26.66       28.01       
H           100.92      23.15       28.3        
H           103.31      24.02       29.29       
C           101.29      24.15       28.29       
C           100.49      25.14       27.72       
C           107.75      29.6        30.84       
C           107.62      28.63       29.79       
C           106.66      29.71       31.77       
C           106.31      27.99       29.64       
C           105.27      28.23       30.52       
C           106.17      27.01       28.65       
C           105.47      29.1        31.57       
C           104.39      29.41       32.5        
N           103.16      28.85       32.19       
C           102.9       28.0        31.21       
C           107.26      26.5        27.76       
N           108.5       27.17       27.93       
C           108.73      28.2        28.88       
O           107.05      25.61       26.96       
O           109.82      28.82       28.87       
O           104.6       30.22       33.31       
O           101.85      27.39       31.19       
C           101.98      29.42       32.92       
C           109.63      26.7        27.11       
H           101.08      29.12       32.43       
H           102.04      30.48       32.96       
H           101.90776   29.05878    33.94587    
H           110.13      27.62       26.78       
H           109.21      26.27       26.21       
H           110.28288   26.01843    27.65526    
H           106.7       30.34       32.66       
H           105.01      25.58       27.82       
C           105.01      26.32       28.53       
C           104.07      27.53       30.36       
C           103.9       26.56       29.33       
C           111.08      30.43       32.88       
C           110.14      31.29       33.16       
S           110.35      29.27       31.85       
H           108.18      31.91       32.63       
H           110.33      32.1        33.86       
C           108.96      31.16       32.42       
C           108.92      30.13       31.53       
C           113.66      29.25       35.53       
C           114.21      29.04       34.34       
S           112.07      29.99       35.41       
H           113.77      29.38       32.26       
H           115.17      28.57       34.25       
C           113.43      29.49       33.3        
C           112.23      30.02       33.7        
C           115.66      29.38       38.84       
C           114.33      29.1        39.17       
S           115.8       29.28       37.09       
H           112.42      28.97       38.13       
H           114.06      29.17       40.19       
C           113.49      28.98       38.03       
C           114.13      28.96       36.83       
C           119.72      31.63       43.56       
C           119.68      31.78       42.2        
C           118.87      30.68       44.16       
C           118.67      31.04       41.51       
C           117.8       30.11       42.08       
C           118.6       31.18       40.11       
C           117.95      29.96       43.44       
C           117.25      28.91       44.25       
N           116.35      28.22       43.46       
C           116.1       28.37       42.04       
C           119.47      32.08       39.29       
N           120.48      32.74       40.01       
C           120.61      32.71       41.43       
O           119.36      32.04       38.04       
O           121.53      33.4        41.92       
O           117.37      28.8        45.51       
O           115.32      27.66       41.46       
C           115.55      27.21       44.16       
C           121.46      33.53       39.24       
H           114.83      26.75       43.49       
H           114.95      27.73       44.89       
H           116.13013   26.3219     44.41067    
H           121.49      34.55       39.7        
H           121.2       33.64       38.14       
H           122.42889   33.03087    39.25468    
H           118.96      30.48       45.26       
H           117.49      30.79       38.33       
C           117.63      30.5        39.35       
C           116.86      29.34       41.24       
C           116.73      29.61       39.85       
C           121.44      33.35       46.61       
C           120.36      34.08       46.26       
S           121.62      31.93       45.6        
H           118.95      34.07       44.59       
H           120.09      35.04       46.76       
C           119.82      33.64       45.06       
C           120.33      32.46       44.56       
C           123.4       34.58       49.75       
C           123.7       33.32       49.47       
S           122.22      35.15       48.62       
H           123.45      31.83       47.85       
H           124.53      32.77       50.0        
C           123.19      32.79       48.26       
C           122.33      33.66       47.69       
C           125.57      36.67       52.36       
C           124.44      37.36       51.98       
S           125.46      35.16       51.57       
H           122.69      37.2        50.62       
H           124.09      38.33       52.39       
C           123.61      36.76       50.98       
C           124.01      35.49       50.63       
C           129.9       39.92       56.32       
C           130.05      39.1        55.22       
C           128.6       39.99       56.79       
C           128.88      38.45       54.55       
C           127.63      38.57       55.15       
C           129.01      37.66       53.34       
C           127.49      39.29       56.29       
C           126.23      39.44       57.13       
N           125.16      38.83       56.46       
C           125.21      38.09       55.26       
C           130.35      37.27       52.84       
N           131.46      37.9        53.51       
C           131.34      38.77       54.61       
O           130.58      36.41       51.96       
O           132.3       39.3        55.06       
O           126.17      39.98       58.17       
O           124.19      37.54       54.89       
C           123.76      39.27       56.89       
C           132.72      37.13       53.56       
H           123.07      39.03       56.18       
H           123.71      40.38       56.75       
H           123.48066   38.95574    57.89564    
H           133.56      37.55       54.07       
H           133.14      37.11       52.57       
H           132.61373   36.13811    53.99927    
H           128.43      40.46       57.75       
H           128.05      36.56       51.84       
C           127.88      37.15       52.76       
C           126.53      37.99       54.51       
C           126.57      37.23       53.28       
C           132.63      41.08       58.99       
C           132.26      42.17       58.28       
S           131.73      39.72       58.49       
H           130.93      42.58       56.61       
H           132.76      43.16       58.29       
C           131.28      41.87       57.25       
C           130.9       40.57       57.26       
C           135.26      41.48       61.75       
C           135.28      40.14       61.32       
S           133.95      42.38       61.02       
H           134.15      38.92       59.98       
H           135.97      39.46       61.82       
C           134.32      39.91       60.36       
C           133.52      40.97       60.05       
H           64.33       20.41       29.69       
H           136.22      41.98       62.01       
