512

C           64.75       42.5        28.56       
C           64.73       41.42       29.36       
S           64.36       43.85       29.58       
H           64.34       40.85       31.44       
H           64.99       40.47       29.0        
C           64.44       41.62       30.76       
C           64.02       42.91       30.99       
C           66.68       42.16       22.27       
C           67.26       42.85       23.34       
C           65.81       41.1        22.56       
C           66.54       42.72       24.61       
C           65.48       41.82       24.85       
C           66.89       43.53       25.72       
C           65.17       40.98       23.74       
C           64.25       39.87       23.91       
N           63.46       39.8        25.06       
C           63.59       40.75       26.1        
C           68.0        44.5        25.72       
N           68.78       44.44       24.48       
C           68.44       43.72       23.3        
O           68.51       45.01       26.71       
O           69.07       43.98       22.32       
O           63.89       39.27       22.87       
O           62.95       40.53       27.15       
C           62.35       38.78       25.1        
C           69.84       45.45       24.37       
H           61.5        39.21       25.63       
H           62.07       38.42       24.13       
H           62.75265    37.87403    25.55298    
H           70.61       45.12       23.65       
H           70.45       45.54       25.27       
H           69.45502    46.39429    23.98502    
H           65.56       40.46       21.74       
H           66.67       44.06       27.8        
C           66.28       43.37       26.97       
C           64.72       41.77       26.07       
C           65.19       42.5        27.15       
C           66.89       41.9        18.45       
C           68.18       42.0        18.83       
S           65.72       42.14       19.68       
H           69.13       42.25       20.82       
H           69.09       41.97       18.23       
C           68.23       42.18       20.2        
C           67.06       42.1        20.81       
C           64.91       42.02       15.07       
C           66.11       42.51       14.8        
S           64.9        41.41       16.71       
H           68.05       42.72       15.84       
H           66.4        42.79       13.78       
C           67.07       42.43       15.89       
C           66.47       42.01       17.06       
C           61.63       42.35       12.89       
C           61.53       41.16       13.64       
S           63.19       43.02       13.19       
H           62.74       40.03       15.16       
H           60.73       40.46       13.65       
C           62.69       40.9        14.44       
C           63.69       41.82       14.3        
C           56.22       43.94       9.39        
C           57.06       44.7        10.23       
C           56.5        42.52       9.31        
C           58.2        44.11       10.79       
C           58.52       42.72       10.51       
C           59.09       44.79       11.67       
C           57.63       41.94       9.81        
C           57.83       40.56       9.37        
N           59.07       40.01       9.81        
C           60.04       40.72       10.55       
C           58.91       46.21       11.88       
N           57.81       46.79       11.24       
C           56.85       46.17       10.48       
O           59.68       46.8        12.54       
O           55.97       46.7        9.77        
O           57.09       39.97       8.63        
O           61.06       40.15       10.67       
C           59.46       38.71       9.18        
C           57.21       48.12       11.76       
H           60.51       38.45       9.39        
H           59.31       38.9        8.11        
H           58.81777    37.90894    9.546       
H           57.04       48.83       10.95       
H           58.06       48.61       12.3        
H           56.3067     48.09132    12.36937    
H           55.85       41.85       8.72        
H           60.87       44.64       12.88       
C           60.18       44.14       12.2        
C           59.76       42.12       11.0        
C           60.54       42.77       11.96       
C           52.41       44.45       8.59        
C           52.98       43.6        7.61        
S           53.66       44.72       9.83        
H           55.0        43.03       7.03        
H           52.36       43.05       6.85        
C           54.34       43.51       7.77        
C           54.88       44.21       8.82        
C           48.65       44.38       9.43        
C           49.08       45.7        9.67        
S           49.86       43.38       8.66        
H           51.18       46.58       9.88        
H           48.5        46.43       10.3        
C           50.52       45.76       9.49        
C           51.05       44.7        8.89        
C           45.26       42.36       10.1        
C           45.01       43.66       10.37       
S           46.87       42.12       9.63        
H           46.19       45.57       10.24       
H           43.96       43.98       10.41       
C           46.2        44.48       10.18       
C           47.32       43.81       9.83        
C           41.63       36.81       10.42       
C           41.97       37.77       11.35       
C           42.07       37.04       9.12        
C           42.77       38.94       10.96       
C           43.13       39.13       9.64        
C           43.09       39.97       11.89       
C           42.71       38.15       8.71        
C           43.06       38.23       7.25        
N           43.71       39.45       6.82        
C           44.31       40.33       7.77        
C           42.6        39.93       13.28       
N           41.96       38.74       13.66       
C           41.48       37.71       12.78       
O           42.88       40.73       14.14       
O           40.87       36.75       13.23       
O           42.66       37.34       6.5         
O           44.91       41.28       7.26        
C           44.38       39.48       5.47        
C           41.87       38.59       15.12       
H           44.53       38.47       5.09        
H           45.41       39.97       5.53        
H           43.67881    39.99187    4.81089     
H           40.94       38.05       15.31       
H           41.66       39.5        15.52       
H           42.74749    38.10251    15.54482    
H           41.85       36.28       8.33        
H           44.08       41.79       12.27       
C           43.77       41.09       11.5        
C           43.9        40.25       9.23        
C           44.25       41.27       10.14       
C           40.0        33.3        10.26       
C           39.01       34.18       10.71       
S           41.54       34.09       10.02       
H           39.02       36.26       11.33       
H           37.98       33.93       10.97       
C           39.57       35.47       10.95       
C           40.87       35.59       10.55       
C           40.54       29.58       9.17        
C           39.44       29.65       9.98        
S           41.11       31.2        8.95        
H           38.21       31.15       11.06       
H           38.84       28.8        10.27       
C           39.06       30.94       10.43       
C           39.85       31.91       9.89        
C           42.92       27.19       7.18        
C           42.11       26.42       8.01        
S           42.47       28.86       7.43        
H           40.33       26.62       9.42        
H           42.3        25.4        8.16        
C           41.06       27.14       8.72        
C           41.18       28.46       8.54        
C           48.22       24.78       4.09        
C           47.27       25.73       3.72        
C           48.18       24.23       5.37        
C           46.26       26.05       4.59        
C           46.18       25.55       5.91        
C           45.18       26.91       4.28        
C           47.2        24.62       6.33        
C           47.48       24.16       7.71        
N           46.55       24.72       8.65        
C           45.39       25.46       8.25        
C           45.09       27.56       2.96        
N           46.2        27.39       2.09        
C           47.25       26.48       2.4         
O           44.15       28.25       2.65        
O           48.12       26.4        1.62        
O           48.37       23.41       8.05        
O           44.75       25.91       9.22        
C           46.69       24.35       10.09       
C           46.16       28.07       0.74        
H           47.15       23.36       10.13       
H           45.76       24.15       10.57       
H           47.22284    25.09597    10.67967    
H           47.11       28.36       0.46        
H           45.47       28.96       0.79        
H           45.81892    27.35231    -0.00611    
H           48.84       23.45       5.69        
H           43.45       27.91       4.81        
C           44.17       27.16       5.14        
C           45.15       25.85       6.81        
C           44.1        26.71       6.47        
C           51.43       23.93       1.86        
C           50.6        22.84       2.04        
S           50.69       25.31       2.73        
H           48.65       22.37       2.94        
H           50.89       21.9        1.54        
C           49.44       23.07       2.74        
C           49.35       24.35       3.26        
C           55.03       25.04       0.32        
C           54.72       23.78       -0.09       
S           53.72       25.61       1.33        
H           53.28       22.23       0.26        
H           55.37       23.13       -0.68       
C           53.53       23.23       0.48        
C           52.82       24.11       1.24        
C           58.49       26.61       -0.68       
C           57.7        27.58       -0.13       
S           57.6        25.09       -0.79       
H           55.62       27.75       0.72        
H           58.13       28.59       0.1         
C           56.4        27.12       0.26        
C           56.22       25.82       0.06        
C           64.64       27.65       -2.79       
C           64.12       26.95       -1.72       
C           63.76       28.38       -3.61       
C           62.7        27.0        -1.49       
C           61.76       27.66       -2.39       
C           62.16       26.37       -0.34       
C           62.37       28.36       -3.47       
C           61.47       29.12       -4.39       
N           60.09       28.92       -4.22       
C           59.56       28.5        -3.03       
C           62.96       25.69       0.63        
N           64.3        25.46       0.29        
C           64.92       26.08       -0.8        
O           62.51       25.24       1.73        
O           66.04       25.65       -1.08       
O           61.91       29.79       -5.32       
O           58.33       28.53       -2.91       
C           59.07       29.66       -5.12       
C           65.14       24.64       1.21        
H           59.5        30.65       -5.24       
H           58.08       29.71       -4.68       
H           59.04217    29.14506    -6.08029    
H           65.84       24.06       0.58        
H           64.4        23.88       1.57        
H           65.66758    25.252      1.94158     
H           64.13       29.04       -4.4        
H           60.46       25.91       0.76        
C           60.77       26.43       -0.09       
C           60.39       27.7        -2.08       
C           59.85       26.99       -1.03       
C           68.52       28.84       -3.18       
C           67.83       29.12       -4.31       
S           67.38       28.32       -2.02       
H           65.84       28.67       -5.18       
H           68.15       29.72       -5.16       
C           66.5        28.5        -4.36       
C           66.07       27.96       -3.18       
C           71.96       30.28       -2.03       
C           71.94       28.97       -1.74       
S           70.49       30.77       -2.88       
H           70.53       27.33       -1.85       
H           72.79       28.47       -1.19       
C           70.73       28.37       -2.16       
C           69.88       29.16       -2.85       
C           74.46       32.56       0.02        
C           74.26       33.1        -1.25       
S           73.75       31.01       -0.06       
H           73.07       32.81       -3.03       
H           74.66       34.03       -1.56       
C           73.32       32.43       -2.05       
C           72.97       31.22       -1.59       
C           77.75       35.45       4.84        
C           78.02       34.37       3.92        
C           76.54       36.07       4.68        
C           77.08       34.06       2.96        
C           75.82       34.71       2.83        
C           77.36       33.01       2.08        
C           75.56       35.7        3.81        
C           74.18       36.31       3.91        
N           73.2        35.97       3.03        
C           73.48       35.04       1.99        
C           78.57       32.16       2.07        
N           79.53       32.52       3.04        
C           79.3        33.62       3.93        
O           78.79       31.35       1.19        
O           80.26       33.94       4.72        
O           74.06       37.12       4.77        
O           72.56       34.82       1.21        
C           71.87       36.63       3.09        
C           80.52       31.54       3.36        
H           71.24       36.19       2.34        
H           71.9        37.72       3.03        
H           71.3763     36.3761     4.02803     
H           81.28       31.9        4.01        
H           80.84       31.28       2.36        
H           80.16685    30.61905    3.82394     
H           76.34       36.84       5.36        
H           76.75       31.95       0.43        
C           76.42       32.71       1.11        
C           74.84       34.39       1.85        
C           75.16       33.31       1.01        
C           79.88       36.38       8.06        
C           79.83       37.47       7.3         
S           78.89       35.1        7.47        
H           79.14       37.95       5.26        
H           80.36       38.38       7.47        
C           79.09       37.26       6.09        
C           78.52       35.99       5.98        
C           82.33       35.98       10.99       
C           81.34       35.12       11.19       
S           82.06       36.97       9.66        
H           79.4        34.58       10.34       
H           81.19       34.5        12.17       
C           80.26       35.21       10.26       
C           80.57       36.12       9.27        
C           85.72       35.33       12.73       
C           85.61       36.74       12.63       
S           84.22       34.52       12.29       
H           84.13       38.19       11.8        
H           86.44       37.36       12.79       
C           84.39       37.11       12.0        
C           83.58       36.03       11.74       
C           90.84       31.75       14.91       
C           90.14       31.93       13.69       
C           90.53       32.64       15.93       
C           89.01       32.74       13.6        
C           88.65       33.64       14.67       
C           88.36       33.02       12.35       
C           89.52       33.67       15.81       
C           89.24       34.53       16.97       
N           88.17       35.45       16.83       
C           87.41       35.61       15.67       
C           88.86       32.38       11.06       
N           89.97       31.51       11.24       
C           90.57       31.18       12.5        
O           88.5        32.84       9.93        
O           91.55       30.47       12.43       
O           89.92       34.41       17.95       
O           86.7        36.62       15.55       
C           87.5        35.58       18.13       
C           90.44       30.84       9.98        
H           87.48       34.68       18.71       
H           86.44       35.83       17.95       
H           87.99338    36.364      18.70448    
H           91.36       30.33       10.07       
H           90.55       31.61       9.15        
H           89.72389    30.06772    9.69917     
H           91.03       32.67       16.88       
H           86.66       33.88       11.36       
C           87.24       33.81       12.24       
C           87.6        34.63       14.52       
C           86.89       34.65       13.31       
C           93.87       29.68       16.27       
C           93.1        28.79       15.62       
S           93.15       31.24       16.35       
H           91.19       28.79       14.64       
H           93.32       27.76       15.68       
C           91.96       29.41       15.07       
C           91.93       30.74       15.27       
C           97.34       28.59       17.97       
C           96.83       29.69       18.64       
S           96.27       28.2        16.61       
H           94.98       30.9        18.52       
H           97.35       30.16       19.51       
C           95.61       30.18       18.07       
C           95.16       29.49       16.96       
C           100.93      27.42       19.15       
C           100.46      26.5        18.25       
S           99.67       28.58       19.43       
H           98.57       25.98       17.21       
H           101.02      25.66       17.97       
C           99.08       26.67       17.86       
C           98.58       27.89       18.27       
C           106.82      28.84       21.71       
C           106.47      28.34       20.44       
C           105.81      28.81       22.71       
C           105.12      28.07       20.18       
C           104.13      27.97       21.19       
C           104.61      27.9        18.88       
C           104.56      28.29       22.5        
C           103.65      28.23       23.72       
N           102.29      27.93       23.44       
C           101.89      27.57       22.16       
C           105.48      28.22       17.72       
N           106.82      28.29       17.97       
C           107.4       28.39       19.29       
O           105.03      28.45       16.57       
O           108.62      28.48       19.38       
O           104.03      28.5        24.87       
O           100.66      27.31       22.08       
C           101.41      27.4        24.52       
C           107.76      28.68       16.84       
H           102.01      26.77       25.13       
H           100.59      26.7        24.23       
H           101.0029    28.2142     25.11955    
H           108.69      29.14       17.17       
H           107.13      29.34       16.3        
H           108.03328   27.79545    16.26468    
H           105.91      29.32       23.66       
H           102.88      27.97       17.67       
C           103.23      27.68       18.66       
C           102.73      27.62       20.95       
C           102.27      27.39       19.68       
C           109.77      30.3        24.02       
C           110.12      30.48       22.74       
S           108.3       29.48       24.06       
H           109.26      30.25       20.68       
H           110.99      31.14       22.49       
C           109.11      30.07       21.77       
C           108.0       29.55       22.28       
C           112.06      31.9        26.61       
C           111.21      31.15       27.31       
S           111.64      31.96       25.02       
H           109.76      29.5        26.87       
H           111.3       30.98       28.39       
C           110.42      30.31       26.46       
C           110.55      30.64       25.15       
C           114.65      33.95       28.62       
C           114.82      34.29       27.3        
S           113.33      32.83       28.83       
H           114.14      33.43       25.36       
H           115.57      34.97       27.0        
C           114.02      33.49       26.41       
C           113.07      32.77       27.12       
C           117.46      37.24       33.54       
C           116.61      37.67       32.46       
C           117.73      35.89       33.74       
C           116.21      36.65       31.54       
C           116.45      35.3        31.79       
C           115.4       37.01       30.39       
C           117.19      34.89       32.96       
C           117.33      33.46       33.32       
N           116.89      32.51       32.41       
C           116.31      32.89       31.18       
C           114.99      38.41       30.06       
N           115.42      39.35       31.0        
C           116.26      39.11       32.14       
O           114.2       38.59       29.16       
O           116.58      40.09       32.78       
O           117.93      33.18       34.31       
O           115.97      31.97       30.44       
C           117.08      31.08       32.74       
C           115.19      40.79       30.69       
H           116.53      30.48       32.04       
H           116.58      30.99       33.71       
H           118.12702   30.77985    32.78188    
H           115.07      41.39       31.6        
H           114.22      40.8        30.13       
H           115.89584   41.26056    30.00555    
H           118.22      35.56       34.6        
H           114.46      36.38       28.69       
C           115.01      36.04       29.5        
C           116.0       34.33       30.83       
C           115.35      34.74       29.65       
C           117.97      39.24       36.93       
C           119.22      39.05       36.39       
S           116.71      38.82       35.74       
H           119.95      37.85       34.61       
H           120.11      39.29       36.92       
C           119.14      38.32       35.15       
C           117.86      38.03       34.73       
C           117.14      41.3        40.28       
C           116.0       41.03       39.63       
S           118.52      40.48       39.52       
H           115.42      39.95       37.68       
H           114.99      41.19       40.05       
C           116.22      40.28       38.39       
C           117.5       39.91       38.18       
C           117.66      44.29       42.86       
C           118.7       43.43       42.99       
S           116.56      43.7        41.65       
H           119.15      41.35       42.24       
H           119.55      43.54       43.67       
C           118.55      42.22       42.22       
C           117.43      42.23       41.39       
C           116.95      50.46       45.33       
C           116.14      49.45       44.91       
C           118.35      50.25       45.26       
C           116.63      48.23       44.42       
C           117.99      47.93       44.32       
C           115.76      47.21       44.01       
C           118.86      49.04       44.75       
C           120.35      48.9        44.62       
N           120.83      47.62       44.25       
C           119.99      46.55       43.79       
C           114.26      47.23       44.21       
N           113.77      48.38       44.59       
C           114.63      49.49       44.93       
O           113.54      46.33       43.82       
O           114.01      50.38       45.37       
O           121.05      49.88       44.9        
O           120.69      45.53       43.52       
C           122.26      47.27       44.59       
C           112.31      48.61       44.68       
H           122.85      48.04       44.09       
H           122.62      46.29       44.23       
H           122.45366   47.2551     45.66256    
H           112.12      49.01       45.68       
H           111.74      47.7        44.55       
H           111.95761   49.31477    43.92686    
H           119.05      51.05       45.51       
H           115.45      45.32       43.26       
C           116.25      45.98       43.6        
C           118.5       46.7        43.8        
C           117.59      45.75       43.33       
C           116.53      54.17       46.61       
C           115.61      53.42       47.23       
S           117.47      53.24       45.6        
H           114.95      51.28       47.38       
H           114.93      53.85       48.0        
C           115.69      51.98       47.0        
C           116.65      51.74       46.03       
C           116.48      57.99       47.24       
C           117.71      57.73       46.63       
S           115.57      56.53       47.56       
H           118.69      55.93       45.81       
H           118.51      58.5        46.55       
C           117.88      56.34       46.29       
C           116.81      55.62       46.75       
H           63.27       43.15       31.76       
H           116.14      58.91       47.51       
