512

C           75.24       40.47       7.71        
C           75.97       41.37       6.94        
S           76.29       39.11       8.17        
H           77.9        41.41       5.88        
H           75.46       42.17       6.4         
C           77.27       40.82       6.53        
C           77.65       39.67       7.26        
C           69.15       41.79       10.03       
C           70.33       42.54       10.03       
C           69.15       40.65       9.25        
C           71.48       42.03       9.4         
C           71.54       40.74       8.72        
C           72.73       42.69       9.4         
C           70.26       40.1        8.61        
C           69.96       38.85       7.83        
N           71.07       38.38       7.05        
C           72.35       38.97       7.14        
C           72.89       43.96       10.1        
N           71.74       44.55       10.63       
C           70.48       43.87       10.64       
O           73.95       44.56       10.23       
O           69.5        44.44       11.03       
O           68.86       38.36       7.8         
O           73.29       38.53       6.52        
C           70.93       37.24       6.08        
C           71.81       45.84       11.34       
H           70.37       37.61       5.23        
H           71.95       36.92       5.81        
H           70.5424     36.3288     6.5356      
H           70.95       46.45       11.14       
H           72.62       46.4        10.83       
H           72.07778    45.71697    12.38941    
H           68.21       40.04       9.21        
H           74.76       42.47       9.18        
C           73.83       41.99       8.87        
C           72.62       40.17       8.0         
C           73.85       40.79       8.06        
C           66.72       41.73       13.21       
C           66.07       41.2        12.09       
S           68.3        42.12       12.69       
H           66.54       40.84       9.97        
H           65.01       40.92       12.1        
C           66.9        41.12       10.89       
C           68.06       41.79       10.99       
C           64.91       42.17       16.67       
C           66.22       41.96       16.94       
S           64.65       42.11       14.95       
H           68.18       41.76       15.76       
H           66.6        41.92       17.97       
C           67.06       41.93       15.78       
C           66.35       41.95       14.63       
C           61.69       41.46       18.83       
C           62.59       42.06       19.63       
S           62.3        41.5        17.22       
H           64.78       42.89       19.45       
H           62.48       42.16       20.72       
C           63.85       42.5        18.95       
C           63.82       42.17       17.63       
C           55.22       40.28       20.14       
C           56.1        41.36       20.45       
C           55.76       39.29       19.27       
C           57.44       41.27       20.04       
C           57.98       40.14       19.26       
C           58.39       42.21       20.44       
C           57.02       39.24       18.8        
C           57.32       38.09       17.88       
N           58.66       38.09       17.41       
C           59.6        39.08       17.8        
C           57.97       43.46       21.27       
N           56.63       43.51       21.64       
C           55.65       42.52       21.29       
O           58.75       44.39       21.49       
O           54.51       42.6        21.73       
O           56.6        37.21       17.47       
O           60.73       38.97       17.39       
C           59.08       37.02       16.51       
C           56.21       44.59       22.61       
H           58.73       36.08       16.87       
H           60.2        36.96       16.53       
H           58.71621    37.23827    15.50595    
H           55.22       44.97       22.23       
H           56.91       45.43       22.59       
H           56.11863    44.30183    23.65724    
H           55.09       38.51       18.98       
H           60.3        43.01       20.4        
C           59.69       42.16       20.04       
C           59.33       40.1        18.82       
C           60.25       41.13       19.25       
C           51.24       39.89       20.32       
C           51.79       39.44       21.47       
S           52.5        40.58       19.34       
H           53.87       39.4        22.39       
H           51.21       38.91       22.24       
C           53.19       39.63       21.57       
C           53.75       40.06       20.39       
C           47.72       40.23       18.72       
C           47.62       39.32       19.69       
S           49.29       40.86       18.56       
H           49.02       38.44       21.21       
H           46.7        38.74       19.91       
C           48.84       39.19       20.45       
C           49.86       39.91       19.89       
C           44.86       40.49       16.0        
C           45.8        41.47       15.8        
S           45.35       39.6        17.38       
H           47.73       42.16       16.52       
H           45.68       42.13       14.95       
C           46.9        41.47       16.74       
C           46.82       40.47       17.69       
C           41.12       39.0        10.62       
C           41.79       38.28       11.53       
C           40.89       40.31       11.03       
C           42.45       38.92       12.61       
C           42.4        40.25       12.96       
C           43.28       38.15       13.55       
C           41.5        40.91       12.14       
C           41.36       42.44       12.22       
N           42.08       42.98       13.28       
C           42.92       42.32       14.19       
C           43.39       36.62       13.37       
N           42.75       36.03       12.27       
C           41.98       36.79       11.3        
O           44.15       35.95       14.17       
O           41.59       36.16       10.31       
O           40.37       42.92       11.65       
O           43.3        42.93       15.13       
C           41.8        44.4        13.65       
C           42.85       34.56       12.13       
H           42.34       44.83       14.39       
H           40.78       44.57       13.9        
H           41.99863    45.01644    12.77328    
H           41.88       34.19       11.77       
H           43.04       34.09       13.1        
H           43.66797    34.20257    11.50449    
H           40.38       41.01       10.32       
H           44.53       38.18       15.23       
C           43.93       38.8        14.6        
C           43.14       40.86       14.06       
C           43.92       40.16       14.94       
C           40.21       38.31       6.8         
C           39.16       38.99       7.39        
S           41.38       37.92       7.97        
H           38.66       39.77       9.37        
H           38.31       39.4        6.86        
C           39.34       39.14       8.79        
C           40.49       38.64       9.31        
C           41.99       38.02       3.34        
C           41.08       38.99       3.19        
S           41.94       37.25       4.91        
H           39.62       39.94       4.53        
H           40.95       39.58       2.32        
C           40.39       39.24       4.44        
C           40.63       38.27       5.39        
C           44.42       37.71       0.31        
C           44.81       36.68       1.2         
S           43.07       38.57       0.88        
H           44.14       35.96       3.18        
H           45.66       36.06       1.08        
C           43.91       36.65       2.35        
C           42.94       37.62       2.34        
C           48.28       38.88       -4.85       
C           47.43       39.69       -4.08       
C           48.18       37.51       -4.63       
C           46.66       39.03       -3.05       
C           46.68       37.63       -2.8        
C           45.89       39.84       -2.23       
C           47.37       36.87       -3.73       
C           47.32       35.34       -3.67       
N           46.35       34.77       -2.84       
C           45.65       35.61       -1.83       
C           45.92       41.32       -2.28       
N           46.59       41.9        -3.4        
C           47.29       41.17       -4.31       
O           45.18       41.99       -1.58       
O           47.87       41.75       -5.26       
O           47.87       34.69       -4.53       
O           44.71       35.15       -1.2        
C           46.25       33.36       -2.6        
C           46.48       43.41       -3.53       
H           45.75       33.2        -1.67       
H           47.28       33.0        -2.4        
H           45.74216    32.8169     -3.39702    
H           47.51       43.74       -3.81       
H           46.19       43.83       -2.6        
H           45.72452    43.62585    -4.28548    
H           48.79       36.83       -5.23       
H           44.6        40.01       -0.6        
C           45.1        39.28       -1.23       
C           45.85       37.16       -1.81       
C           45.14       37.98       -0.98       
C           51.29       39.67       -7.21       
C           50.16       39.9        -7.97       
S           50.97       39.1        -5.6        
H           48.01       39.66       -7.59       
H           50.22       40.37       -8.98       
C           49.01       39.52       -7.24       
C           49.25       39.15       -5.91       
C           55.09       39.84       -7.74       
C           54.51       40.8        -8.52       
S           53.91       39.01       -6.68       
H           52.34       41.53       -8.93       
H           55.07       41.44       -9.25       
C           53.1        40.92       -8.35       
C           52.67       40.01       -7.44       
C           58.81       38.54       -7.86       
C           58.46       38.68       -6.59       
S           57.56       39.23       -8.94       
H           56.6        38.89       -5.45       
H           59.14       38.37       -5.78       
C           57.09       39.04       -6.43       
C           56.43       39.42       -7.6        
C           65.05       36.49       -8.94       
C           64.3        37.53       -9.43       
C           64.27       35.54       -8.33       
C           62.97       37.78       -8.97       
C           62.19       36.77       -8.29       
C           62.18       38.94       -9.35       
C           62.97       35.63       -8.04       
C           62.48       34.44       -7.25       
N           61.16       34.61       -6.78       
C           60.31       35.71       -7.18       
C           62.7        39.93       -10.33      
N           64.03       39.65       -10.78      
C           64.82       38.52       -10.38      
O           61.83       40.71       -10.78      
O           65.96       38.5        -10.86      
O           63.19       33.46       -6.97       
O           59.16       35.61       -6.79       
C           60.58       33.46       -6.1        
C           64.29       40.0        -12.21      
H           61.0        32.54       -6.66       
H           59.54       33.32       -6.25       
H           60.83888    33.52997    -5.0435     
H           65.32       40.39       -12.27      
H           63.59       40.79       -12.53      
H           64.11705    39.16985    -12.89487   
H           64.79       34.65       -7.95       
H           60.29       39.97       -9.16       
C           60.82       39.05       -8.95       
C           60.86       36.91       -7.87       
C           60.14       38.06       -8.13       
C           68.86       35.18       -8.45       
C           68.9        36.57       -8.64       
S           67.17       34.69       -8.26       
H           67.47       38.1        -8.91       
H           69.77       37.21       -8.54       
C           67.62       37.11       -8.87       
C           66.55       36.27       -8.73       
C           71.86       33.01       -7.56       
C           70.83       32.17       -7.98       
S           71.43       34.66       -7.68       
H           68.67       32.45       -8.66       
H           70.84       31.07       -8.06       
C           69.65       32.88       -8.31       
C           69.86       34.2        -8.17       
C           75.24       32.74       -5.6        
C           74.71       31.42       -5.73       
S           74.26       33.8        -6.47       
H           72.96       30.43       -6.6        
H           75.2        30.51       -5.46       
C           73.52       31.39       -6.47       
C           73.11       32.63       -6.88       
C           80.82       34.15       -2.32       
C           80.53       33.19       -3.29       
C           79.84       35.04       -2.01       
C           79.17       33.13       -3.77       
C           78.19       34.04       -3.4        
C           78.75       32.21       -4.75       
C           78.59       35.04       -2.41       
C           77.67       36.02       -1.93       
N           76.28       35.97       -2.39       
C           75.83       35.0        -3.39       
C           79.72       31.35       -5.37       
N           81.01       31.31       -4.81       
C           81.45       32.18       -3.84       
O           79.42       30.57       -6.27       
O           82.62       32.07       -3.52       
O           78.06       36.82       -1.12       
O           74.66       35.07       -3.73       
C           75.28       36.5        -1.47       
C           81.62       29.95       -4.81       
H           75.51       36.2        -0.42       
H           74.35       35.92       -1.64       
H           75.15532    37.57076    -1.63135    
H           82.63       30.01       -4.55       
H           81.6        29.61       -5.84       
H           81.03541    29.28503    -4.17426    
H           80.12       35.83       -1.27       
H           77.32       31.4        -6.01       
C           77.5        32.18       -5.24       
C           76.87       34.05       -3.96       
C           76.5        33.13       -4.88       
C           84.27       35.43       -1.03       
C           83.49       35.19       0.08        
S           83.62       34.74       -2.49       
H           81.37       34.36       0.35        
H           83.88       35.26       1.1         
C           82.21       34.62       -0.33       
C           82.07       34.52       -1.72       
C           88.07       35.26       -0.28       
C           87.93       35.88       -1.46       
S           86.5        34.84       0.34        
H           86.17       36.43       -2.72       
H           88.76       36.14       -2.11       
C           86.54       36.05       -1.81       
C           85.65       35.66       -0.92       
C           90.89       33.5        1.68        
C           91.39       34.64       1.19        
S           89.19       33.27       1.34        
H           90.66       36.35       0.03        
H           92.47       34.93       1.28        
C           90.45       35.37       0.47        
C           89.22       34.72       0.4         
C           95.13       30.63       5.69        
C           94.76       30.3        4.41        
C           94.63       31.75       6.32        
C           93.73       31.08       3.92        
C           93.11       32.21       4.52        
C           93.23       30.85       2.62        
C           93.61       32.54       5.81        
C           92.96       33.59       6.68        
N           91.91       34.29       5.97        
C           91.57       34.08       4.63        
C           93.67       29.67       1.72        
N           94.73       28.89       2.27        
C           95.26       29.09       3.63        
O           93.24       29.48       0.57        
O           96.08       28.33       4.01        
O           93.36       33.68       7.83        
O           90.53       34.69       4.21        
C           90.95       35.21       6.63        
C           95.29       27.74       1.46        
H           90.07       34.62       6.86        
H           90.68       35.96       5.93        
H           91.31901    35.7221     7.51864     
H           96.34       27.82       1.53        
H           95.04       27.9        0.36        
H           94.98552    26.7323     1.74273     
H           95.0        32.02       7.32        
H           92.18       31.49       0.93        
C           92.25       31.62       2.03        
C           92.17       32.98       3.88        
C           91.71       32.71       2.62        
C           97.8        29.37       8.47        
C           98.31       29.2        7.26        
S           96.22       30.13       8.25        
H           97.82       29.59       5.11        
H           99.19       28.73       7.07        
C           97.47       29.67       6.16        
C           96.26       30.18       6.52        
C           98.82       28.84       12.16       
C           99.98       29.03       11.41       
S           97.46       29.1        11.12       
H           100.53      29.46       9.3         
H           100.94      28.93       11.89       
C           99.74       29.25       10.04       
C           98.43       29.22       9.74        
C           99.27       28.78       16.08       
C           97.95       28.52       15.82       
S           100.03      28.95       14.61       
H           96.59       28.29       13.99       
H           97.26       28.27       16.58       
C           97.59       28.53       14.39       
C           98.68       28.65       13.59       
C           101.98      28.58       22.07       
C           102.41      28.02       20.86       
C           100.7       29.19       22.21       
C           101.62      28.3        19.69       
C           100.39      29.06       19.75       
C           101.98      27.82       18.37       
C           99.97       29.55       21.04       
C           98.73       30.32       21.25       
N           97.97       30.65       20.08       
C           98.35       30.17       18.82       
C           103.19      26.97       18.14       
N           103.89      26.67       19.35       
C           103.59      27.14       20.62       
O           103.5       26.45       17.1        
O           104.33      26.93       21.5        
O           98.49       30.66       22.39       
O           97.68       30.51       17.86       
C           97.08       31.86       20.14       
C           105.02      25.66       19.35       
H           96.71       32.21       19.12       
H           97.7        32.65       20.58       
H           96.21305    31.64682    20.76534    
H           105.8       25.89       20.15       
H           105.59      25.7        18.42       
H           104.56167   24.68084    19.48889    
H           100.44      29.56       23.13       
H           101.48      27.73       16.32       
C           101.18      28.12       17.31       
C           99.55       29.28       18.67       
C           99.95       28.79       17.43       
C           103.66      28.97       25.62       
C           103.49      27.59       25.4        
S           103.19      29.87       24.23       
H           102.65      26.42       23.77       
H           103.62      26.73       26.12       
C           102.95      27.41       24.07       
C           102.6       28.48       23.4        
C           105.13      31.7        28.09       
C           106.0       30.64       28.05       
S           103.75      31.29       27.12       
H           106.22      28.68       26.96       
H           106.83      30.66       28.7        
C           105.62      29.6        27.18       
C           104.34      29.77       26.57       
C           105.55      34.94       30.07       
C           104.5       35.13       29.23       
S           106.21      33.34       29.86       
H           103.43      33.94       27.65       
H           104.06      36.1        29.05       
C           104.24      33.99       28.41       
C           105.04      33.0        28.69       
C           107.93      39.93       33.44       
C           108.16      39.53       32.13       
C           107.26      39.05       34.36       
C           107.47      38.42       31.69       
C           106.73      37.51       32.56       
C           107.61      37.94       30.33       
C           106.67      37.9        33.92       
C           105.99      37.14       34.97       
N           105.43      35.92       34.57       
C           105.25      35.6        33.17       
C           108.53      38.56       29.39       
N           109.18      39.73       29.81       
C           109.07      40.22       31.14       
O           108.66      38.14       28.21       
O           109.7       41.24       31.36       
O           106.06      37.48       36.13       
O           104.74      34.54       32.87       
C           105.62      34.61       35.33       
C           109.88      40.56       28.79       
H           106.54      34.58       35.79       
H           105.43      33.71       34.76       
H           104.91448   34.48042    36.1507     
H           109.47      41.54       29.01       
H           109.47      40.22       27.81       
H           110.96577   40.5318     28.88166    
H           106.99      39.43       35.38       
H           106.99      36.43       29.0        
C           106.92      36.83       29.99       
C           105.99      36.39       32.2        
C           106.15      36.01       30.83       
C           108.94      43.42       34.82       
C           107.65      43.29       34.85       
S           109.82      42.0        34.37       
H           106.19      41.73       34.31       
H           106.97      44.12       35.04       
C           107.2       42.03       34.48       
C           108.22      41.26       34.01       
C           110.23      47.08       35.54       
C           111.27      46.28       35.14       
S           108.77      46.13       35.58       
H           111.51      44.24       34.35       
H           112.28      46.68       35.05       
C           110.87      44.97       34.77       
C           109.59      44.63       35.16       
C           110.17      51.0        35.87       
C           111.01      50.4        36.74       
S           109.36      49.68       35.03       
H           111.79      48.35       37.34       
H           111.7       50.99       37.36       
C           111.08      48.99       36.79       
C           110.23      48.45       35.84       
C           110.03      57.39       34.32       
C           111.01      56.39       34.14       
C           108.73      56.96       34.64       
C           110.75      55.07       34.53       
C           109.44      54.67       34.92       
C           111.72      54.05       34.57       
C           108.4       55.63       34.88       
C           107.04      55.31       35.38       
N           106.85      53.99       35.88       
C           107.83      52.99       35.93       
C           113.08      54.31       34.06       
N           113.38      55.61       33.75       
C           112.42      56.65       33.82       
O           113.87      53.45       34.1        
O           112.85      57.75       33.61       
O           106.13      56.16       35.41       
O           107.54      51.89       36.4        
C           105.52      53.69       36.49       
C           114.76      55.97       33.5        
H           105.21      54.62       36.97       
H           105.6       52.9        37.22       
H           104.7993    53.3801     35.73326    
H           114.89      56.72       32.73       
H           115.3       55.07       33.18       
H           115.23332   56.29715    34.42576    
H           107.91      57.67       34.59       
H           112.25      52.09       35.15       
C           111.44      52.8        35.07       
C           109.16      53.39       35.42       
C           110.16      52.44       35.51       
C           110.13      61.14       33.34       
C           109.97      61.0        34.69       
S           109.97      59.61       32.51       
H           110.06      59.35       36.1        
H           110.19      61.84       35.34       
C           109.96      59.7        35.09       
C           110.02      58.81       34.05       
C           110.3       64.85       31.86       
C           110.53      63.94       30.82       
S           110.22      63.97       33.34       
H           110.43      61.64       30.77       
H           110.78      64.23       29.79       
C           110.37      62.55       31.31       
C           110.26      62.35       32.65       
H           78.59       39.52       7.69        
H           110.75      65.82       31.93       
