512

C           64.58       24.52       36.9        
C           65.31       23.78       37.84       
S           65.74       25.66       36.21       
H           67.32       23.41       38.43       
H           64.85       22.86       38.36       
C           66.63       24.06       37.87       
C           67.08       25.1        37.12       
C           57.9        24.6        36.31       
C           58.83       24.86       37.36       
C           58.59       24.47       35.15       
C           60.24       24.73       37.18       
C           60.9        24.39       36.0        
C           61.21       24.93       38.2        
C           59.95       24.27       34.95       
C           60.34       23.95       33.63       
N           61.72       23.82       33.4        
C           62.74       23.89       34.38       
C           60.85       25.33       39.55       
N           59.48       25.42       39.73       
C           58.42       25.17       38.79       
O           61.7        25.46       40.39       
O           57.21       25.2        39.22       
O           59.53       23.92       32.7        
O           63.9        23.55       34.1        
C           62.18       23.81       32.02       
C           59.06       25.55       41.18       
H           63.05       23.12       31.9        
H           61.33       23.41       31.45       
H           62.37983    24.84361    31.73748    
H           58.12       26.0        41.32       
H           59.69       26.27       41.6        
H           59.04602    24.62733    41.76016    
H           57.94       24.41       34.27       
H           63.32       25.05       38.74       
C           62.61       24.83       37.97       
C           62.28       24.22       35.73       
C           63.11       24.32       36.8        
C           53.99       24.79       35.61       
C           54.35       25.85       36.39       
S           55.38       23.77       35.19       
H           56.17       26.51       37.37       
H           53.65       26.62       36.78       
C           55.74       25.78       36.78       
C           56.44       24.78       36.14       
C           50.47       25.01       33.85       
C           50.61       23.73       34.33       
S           51.82       25.97       34.38       
H           52.08       22.39       35.3        
H           49.87       22.91       34.25       
C           51.84       23.42       34.98       
C           52.68       24.54       35.02       
C           47.01       26.16       32.34       
C           48.0        26.95       31.83       
S           47.75       24.93       33.3        
H           50.2        27.45       32.22       
H           47.71       27.64       31.08       
C           49.3        26.84       32.39       
C           49.34       25.68       33.18       
C           40.72       26.33       30.18       
C           41.41       25.39       30.91       
C           41.22       27.63       30.11       
C           42.77       25.73       31.31       
C           43.36       26.99       31.11       
C           43.62       24.81       31.89       
C           42.47       27.94       30.49       
C           42.93       29.32       30.26       
N           44.21       29.67       30.75       
C           45.09       28.71       31.31       
C           43.1        23.42       32.27       
N           41.82       23.12       31.8        
C           40.98       23.98       31.12       
O           43.73       22.71       33.09       
O           39.76       23.66       31.07       
O           42.23       30.21       29.74       
O           46.04       29.28       31.79       
C           44.77       31.0        30.24       
C           41.29       21.78       32.06       
H           44.51       31.05       29.19       
H           45.86       31.04       30.26       
H           44.29213    31.86302    30.70361    
H           40.35       21.91       32.52       
H           41.89       21.25       32.86       
H           41.26058    21.16208    31.16255    
H           40.72       28.34       29.45       
H           45.36       24.17       32.61       
C           44.92       25.02       32.16       
C           44.78       27.24       31.46       
C           45.59       26.21       31.96       
C           37.77       25.51       27.59       
C           37.49       26.73       28.15       
S           39.25       24.88       28.28       
H           38.38       27.92       29.94       
H           36.57       27.33       27.96       
C           38.43       27.08       29.23       
C           39.46       26.12       29.38       
C           36.4        25.2        24.04       
C           36.84       24.0        24.38       
S           36.5        26.38       25.33       
H           37.69       23.02       26.17       
H           36.96       23.17       23.75       
C           37.34       23.94       25.71       
C           37.22       25.17       26.31       
C           36.51       26.58       20.4        
C           35.98       25.34       20.37       
S           36.72       27.09       22.08       
H           35.44       23.81       21.77       
H           35.69       24.85       19.48       
C           35.7        24.84       21.65       
C           36.13       25.59       22.67       
C           39.64       30.04       15.92       
C           39.76       28.7        16.32       
C           38.55       30.72       16.32       
C           38.81       28.21       17.25       
C           37.74       28.97       17.73       
C           38.97       26.96       17.81       
C           37.68       30.26       17.28       
C           36.51       31.17       17.72       
N           35.65       30.7        18.78       
C           35.9        29.44       19.3        
C           40.16       26.06       17.53       
N           40.96       26.55       16.46       
C           40.85       27.83       15.82       
O           40.43       24.97       18.1        
O           41.54       28.09       14.84       
O           36.28       32.17       17.1        
O           35.14       29.0        20.21       
C           34.34       31.27       19.23       
C           42.12       25.82       16.14       
H           34.16       31.01       20.25       
H           33.56       30.78       18.72       
H           34.24817    32.33663    19.02515    
H           42.35       25.83       15.11       
H           41.92       24.78       16.34       
H           42.99785    26.21327    16.65266    
H           38.42       31.78       16.0        
H           38.3        25.54       19.18       
C           38.09       26.48       18.72       
C           36.85       28.49       18.63       
C           36.99       27.19       19.16       
C           41.67       31.83       12.99       
C           42.55       31.57       14.04       
S           40.02       31.43       13.44       
H           42.41       30.62       16.07       
H           43.64       31.74       13.97       
C           41.91       30.97       15.14       
C           40.54       30.75       14.97       
C           43.01       32.6        9.4         
C           41.74       33.0        9.47        
S           43.58       32.03       11.0        
H           40.12       32.98       10.94       
H           41.15       33.42       8.74        
C           41.18       32.77       10.74       
C           41.99       32.35       11.68       
C           46.1        32.47       6.89        
C           45.05       33.15       6.32        
S           45.62       32.08       8.49        
H           43.06       33.97       6.78        
H           45.16       33.59       5.31        
C           43.88       33.28       7.08        
C           43.96       32.64       8.26        
C           51.75       30.97       3.73        
C           51.12       32.15       3.87        
C           51.19       29.81       4.36        
C           49.9        32.18       4.68        
C           49.32       31.09       5.33        
C           49.22       33.32       4.88        
C           50.07       29.9        5.16        
C           49.53       28.55       5.59        
N           48.27       28.52       6.24        
C           47.51       29.71       6.44        
C           49.64       34.64       4.3         
N           50.84       34.62       3.6         
C           51.65       33.46       3.43        
O           49.05       35.73       4.47        
O           52.72       33.65       2.96        
O           50.18       27.6        5.35        
O           46.42       29.6        6.93        
C           47.72       27.17       6.56        
C           51.25       35.84       2.86        
H           47.49       26.6        5.66        
H           46.67       27.25       6.98        
H           48.36164    26.61686    7.24589     
H           52.37       35.87       2.85        
H           51.0        36.76       3.41        
H           50.95348    35.8183     1.81133     
H           51.7        28.9        4.18        
H           47.51       34.33       5.57        
C           47.98       33.36       5.59        
C           48.04       31.04       6.0         
C           47.31       32.2        6.16        
C           54.5        30.55       0.86        
C           54.94       30.07       2.0         
S           52.87       31.05       1.19        
H           54.2        29.55       4.05        
H           55.86       29.53       1.97        
C           54.02       30.04       3.12        
C           52.94       30.72       2.88        
C           56.43       30.2        -2.54       
C           55.17       30.45       -2.8        
S           56.68       30.06       -0.81       
H           53.3        30.8        -1.7        
H           54.67       30.38       -3.79       
C           54.37       30.67       -1.63       
C           55.05       30.53       -0.46       
C           59.78       28.95       -3.99       
C           58.89       28.68       -5.02       
S           58.96       29.6        -2.6        
H           56.57       29.01       -5.35       
H           59.08       28.27       -5.97       
C           57.49       29.02       -4.71       
C           57.46       29.55       -3.39       
C           66.42       28.63       -4.32       
C           65.43       29.06       -5.21       
C           65.99       28.11       -3.12       
C           64.11       29.0        -4.8        
C           63.6        28.4        -3.63       
C           63.11       29.63       -5.64       
C           64.64       27.97       -2.77       
C           64.33       27.41       -1.46       
N           62.99       27.13       -1.18       
C           61.93       27.71       -1.95       
C           63.35       30.36       -6.85       
N           64.71       30.44       -7.23       
C           65.75       29.87       -6.48       
O           62.46       30.86       -7.54       
O           66.86       30.11       -6.83       
O           65.19       27.16       -0.71       
O           60.8        27.56       -1.48       
C           62.52       26.44       0.07        
C           65.03       30.86       -8.62       
H           61.46       26.09       -0.02       
H           62.52       27.1        0.93        
H           63.13305    25.57151    0.31084     
H           65.94       31.48       -8.57       
H           64.25       31.57       -8.96       
H           65.20243    30.00505    -9.27378    
H           66.73       27.76       -2.39       
H           61.05       29.76       -6.06       
C           61.75       29.46       -5.3        
C           62.22       28.41       -3.25       
C           61.26       28.79       -4.13       
C           70.23       28.29       -4.99       
C           70.09       28.67       -3.71       
S           68.75       27.86       -5.75       
H           68.39       28.98       -2.39       
H           70.97       28.89       -3.11       
C           68.71       28.83       -3.37       
C           67.91       28.59       -4.41       
C           73.29       27.05       -7.1        
C           73.79       27.61       -5.99       
S           71.58       26.92       -7.03       
H           73.03       28.66       -4.16       
H           74.85       27.76       -5.88       
C           72.83       28.13       -5.1        
C           71.49       27.89       -5.56       
C           76.0        26.04       -9.77       
C           74.94       25.12       -9.73       
S           75.58       27.24       -8.56       
H           73.08       24.59       -8.68       
H           74.96       24.22       -10.35      
C           73.9        25.36       -8.81       
C           74.07       26.48       -8.14       
C           82.26       25.75       -11.94      
C           81.28       24.76       -11.58      
C           81.76       27.03       -12.05      
C           79.92       25.07       -11.25      
C           79.45       26.4        -11.39      
C           79.02       24.1        -10.75      
C           80.42       27.35       -11.77      
C           80.1        28.78       -11.98      
N           78.74       29.13       -11.8       
C           77.76       28.24       -11.31      
C           79.4        22.69       -10.63      
N           80.76       22.42       -10.89      
C           81.69       23.33       -11.44      
O           78.61       21.85       -10.47      
O           82.72       22.85       -11.71      
O           81.0        29.66       -12.36      
O           76.61       28.66       -11.21      
C           78.27       30.44       -12.38      
C           81.18       20.97       -10.88      
H           77.21       30.44       -12.59      
H           78.82       30.65       -13.3       
H           78.41683    31.27691    -11.69726   
H           82.02       20.75       -11.54      
H           80.29       20.41       -11.26      
H           81.54147    20.58685    -9.92573    
H           82.38       27.83       -12.39      
H           77.19       23.81       -9.87       
C           77.72       24.53       -10.43      
C           78.11       26.82       -11.08      
C           77.24       25.85       -10.55      
C           86.16       26.22       -11.73      
C           85.91       25.16       -12.52      
S           84.67       26.93       -11.22      
H           84.21       24.07       -13.39      
H           86.59       24.48       -12.98      
C           84.56       24.88       -12.76      
C           83.73       25.75       -12.12      
C           89.21       28.32       -10.45      
C           89.78       27.15       -11.05      
S           87.5        28.23       -10.46      
H           88.81       25.37       -12.06      
H           90.8        26.83       -11.19      
C           88.68       26.28       -11.51      
C           87.43       26.66       -11.27      
C           91.02       31.05       -8.39       
C           89.8        31.53       -8.8        
S           91.32       29.57       -9.27       
H           88.03       30.81       -9.96       
H           89.42       32.43       -8.36       
C           89.04       30.62       -9.59       
C           89.71       29.47       -9.94       
C           95.39       34.26       -4.57       
C           95.01       34.49       -5.88       
C           94.74       33.21       -3.88       
C           94.01       33.61       -6.5        
C           93.41       32.58       -5.76       
C           93.48       33.7        -7.78       
C           93.81       32.41       -4.45       
C           93.23       31.31       -3.59       
N           92.27       30.47       -4.13       
C           91.86       30.63       -5.49       
C           93.92       34.83       -8.63       
N           94.86       35.71       -8.09       
C           95.4        35.68       -6.72       
O           93.34       35.14       -9.64       
O           96.13       36.57       -6.35       
O           93.48       31.23       -2.35       
O           91.02       29.89       -5.88       
C           91.62       29.47       -3.28       
C           95.45       36.71       -9.02       
H           90.86       29.11       -3.92       
H           91.09       29.92       -2.37       
H           92.35758    28.7466     -2.93249    
H           95.55       37.65       -8.55       
H           94.74       36.85       -9.78       
H           96.42382    36.43677    -9.42634    
H           94.94       32.9        -2.87       
H           92.19       32.99       -9.36       
C           92.5        32.86       -8.3        
C           92.41       31.67       -6.32       
C           91.96       31.82       -7.58       
C           98.58       35.4        -2.62       
C           97.58       36.29       -2.43       
S           98.13       34.2        -3.74       
H           95.55       36.68       -3.08       
H           97.7        37.13       -1.64       
C           96.43       36.03       -3.16       
C           96.53       34.91       -3.84       
C           101.84      35.31       -0.35       
C           102.02      34.41       -1.39       
S           100.29      36.07       -0.53       
H           100.82      33.71       -3.16       
H           102.85      33.75       -1.55       
C           100.87      34.36       -2.2        
C           99.82       35.28       -1.99       
C           103.83      34.87       2.92        
C           103.45      36.12       2.87        
S           103.54      34.01       1.48        
H           102.14      37.36       1.59        
H           103.72      36.94       3.58        
C           102.61      36.41       1.74        
C           102.58      35.38       0.93        
C           108.63      32.14       6.47        
C           108.36      33.42       5.95        
C           107.6       31.23       6.34        
C           107.12      33.75       5.39        
C           106.13      32.84       5.31        
C           106.92      34.98       4.71        
C           106.32      31.53       5.86        
C           105.27      30.5        5.87        
N           104.09      30.89       5.25        
C           103.85      32.15       4.69        
C           107.91      36.07       4.65        
N           109.06      35.79       5.35        
C           109.39      34.52       5.99        
O           107.67      37.08       4.02        
O           110.51      34.37       6.56        
O           105.4       29.36       6.37        
O           102.72      32.43       4.25        
C           103.14      29.81       4.89        
C           109.81      36.94       5.83        
H           103.65      28.93       4.51        
H           102.52      30.13       3.99        
H           102.4976    29.51021    5.71798     
H           109.89      36.84       6.94        
H           109.16      37.79       5.72        
H           110.69727   37.15294    5.23376     
H           107.74      30.13       6.62        
H           105.85      36.04       3.37        
C           105.8       35.21       3.97        
C           104.92      33.15       4.63        
C           104.75      34.38       3.93        
C           111.95      30.95       8.41        
C           111.68      30.1        7.39        
S           110.63      32.0        8.63        
H           110.14      30.0        5.75        
H           112.37      29.29       7.05        
C           110.54      30.53       6.58        
C           109.86      31.6        7.11        
C           114.18      30.74       11.6        
C           114.43      29.69       10.78       
S           112.86      31.69       10.87       
H           113.82      28.74       8.98        
H           115.24      29.08       10.89       
C           113.69      29.63       9.61        
C           112.85      30.64       9.47        
C           115.42      32.36       14.94       
C           116.47      31.81       14.32       
S           113.92      31.93       14.12       
H           116.87      30.75       12.43       
H           117.56      31.96       14.61       
C           116.11      31.17       13.14       
C           114.83      31.23       12.84       
C           114.84      35.92       20.58       
C           115.68      36.11       19.38       
C           114.07      34.73       20.62       
C           115.65      35.06       18.4        
C           114.8       33.94       18.36       
C           116.48      35.14       17.23       
C           114.03      33.82       19.57       
C           113.12      32.71       19.81       
N           113.19      31.7        18.87       
C           114.0       31.8        17.69       
C           117.56      36.15       17.13       
N           117.45      37.23       18.05       
C           116.54      37.35       19.1        
O           118.34      36.19       16.16       
O           116.58      38.34       19.82       
O           112.52      32.59       20.9        
O           113.96      30.89       16.88       
C           112.62      30.37       19.23       
C           118.71      37.99       18.32       
H           112.84      30.15       20.28       
H           112.94      29.62       18.49       
H           111.53028   30.39069    19.21621    
H           118.62      39.08       18.55       
H           119.39      37.91       17.47       
H           119.33167   37.61843    19.1346     
H           113.32      34.64       21.42       
H           117.13      34.35       15.41       
C           116.41      34.21       16.21       
C           114.85      32.95       17.4        
C           115.56      33.11       16.22       
C           115.25      37.94       23.94       
C           113.89      37.76       23.7        
S           116.23      37.16       22.77       
H           112.72      36.6        22.31       
H           113.17      38.14       24.33       
C           113.62      37.03       22.49       
C           114.79      36.62       21.84       
C           116.02      40.27       26.99       
C           117.2       39.89       26.42       
S           114.71      39.56       26.06       
H           117.96      38.61       24.75       
H           118.16      40.3        26.71       
C           117.14      39.0        25.3        
C           115.81      38.74       25.02       
C           115.89      43.5        29.29       
C           114.66      42.95       29.12       
S           116.97      42.26       28.65       
H           113.58      41.31       28.04       
H           113.78      43.49       29.43       
C           114.55      41.68       28.43       
C           115.77      41.28       27.99       
C           117.0       49.32       32.21       
C           117.46      48.76       31.03       
C           115.91      48.68       32.76       
C           117.01      47.43       30.72       
C           116.07      46.66       31.46       
C           117.59      46.74       29.69       
C           115.38      47.42       32.39       
C           114.23      46.97       33.15       
N           113.8       45.7        32.8        
C           114.41      44.9        31.87       
C           118.76      47.2        28.88       
N           119.15      48.5        29.24       
C           118.57      49.25       30.21       
O           119.45      46.58       28.09       
O           118.95      50.4        30.38       
O           113.79      47.59       34.05       
O           114.03      43.82       31.75       
C           112.75      45.17       33.69       
C           120.39      48.95       28.62       
H           113.05      45.37       34.72       
H           112.75      44.04       33.66       
H           111.75826   45.43354    33.32243    
H           120.48      50.02       28.69       
H           120.33      48.72       27.56       
H           121.24894   48.47897    29.09796    
H           115.4       49.18       33.5        
H           117.61      44.96       28.51       
C           117.14      45.44       29.34       
C           115.56      45.42       31.04       
C           116.19      44.73       30.03       
C           116.5       53.08       32.92       
C           116.87      52.49       34.07       
S           116.72      52.02       31.65       
H           117.61      50.49       34.83       
H           116.93      53.0        35.02       
C           117.26      51.13       34.0        
C           117.15      50.7        32.69       
C           115.34      56.42       31.24       
C           114.8       56.4        32.45       
S           116.4       55.03       31.03       
H           114.7       54.98       34.26       
H           114.07      57.03       32.86       
C           115.11      55.19       33.29       
C           116.0       54.37       32.6        
H           67.81       25.81       37.44       
H           115.49      57.24       30.6        
