512

C           65.52       32.43       35.1        
C           66.51       32.92       35.95       
S           66.26       31.47       33.82       
H           68.62       32.86       36.19       
H           66.31       33.56       36.79       
C           67.8        32.49       35.64       
C           67.86       31.82       34.43       
C           59.0        33.77       34.63       
C           60.15       34.58       34.91       
C           59.21       32.38       34.62       
C           61.43       34.02       35.07       
C           61.57       32.64       34.93       
C           62.6        34.78       35.35       
C           60.42       31.82       34.75       
C           60.46       30.35       34.69       
N           61.71       29.76       34.91       
C           62.91       30.48       35.03       
C           62.46       36.23       35.36       
N           61.2        36.77       35.33       
C           60.02       36.04       35.18       
O           63.47       36.88       35.44       
O           58.97       36.69       35.07       
O           59.51       29.68       34.5        
O           63.91       29.87       35.4        
C           61.82       28.28       34.85       
C           61.17       38.21       35.53       
H           62.68       27.89       35.36       
H           60.94       27.88       35.3        
H           61.85534    27.89129    33.83228    
H           60.26       38.57       35.06       
H           61.98       38.71       35.04       
H           61.19935    38.50352    36.57933    
H           58.33       31.79       34.61       
H           64.67       34.79       35.33       
C           63.88       34.14       35.33       
C           62.88       31.96       35.01       
C           64.06       32.73       35.21       
C           55.25       35.07       34.17       
C           55.57       34.18       33.22       
S           56.57       35.19       35.29       
H           57.35       32.88       32.56       
H           54.97       33.98       32.38       
C           56.94       33.65       33.29       
C           57.66       34.23       34.27       
C           51.71       36.83       34.23       
C           52.38       37.11       35.34       
S           52.69       35.74       33.28       
H           54.4        36.77       36.22       
H           52.07       37.71       36.22       
C           53.73       36.6        35.41       
C           54.03       35.76       34.42       
C           48.52       37.74       32.27       
C           48.53       38.52       33.41       
S           49.87       36.72       32.21       
H           49.86       38.88       35.19       
H           47.8        39.23       33.7        
C           49.64       38.23       34.29       
C           50.46       37.28       33.77       
C           44.72       39.29       26.97       
C           45.35       40.04       27.98       
C           44.69       37.86       27.15       
C           46.06       39.38       29.03       
C           46.14       37.99       29.14       
C           46.67       40.13       30.05       
C           45.38       37.28       28.2        
C           45.28       35.8        28.27       
N           46.13       35.13       29.22       
C           46.83       35.77       30.26       
C           46.67       41.61       30.0        
N           45.85       42.23       29.11       
C           45.29       41.55       28.01       
O           47.26       42.27       30.9        
O           44.64       42.17       27.2        
O           44.51       35.25       27.51       
O           47.56       35.1        31.03       
C           45.83       33.68       29.32       
C           45.22       43.49       29.49       
H           44.76       33.5        29.35       
H           46.34       33.3        30.21       
H           46.26773    33.13109    28.48622    
H           45.01       44.02       28.56       
H           45.88       44.16       30.02       
H           44.30199    43.25332    30.0279     
H           44.04       37.26       26.59       
H           47.95       40.08       31.71       
C           47.43       39.49       31.0        
C           46.86       37.3        30.19       
C           47.58       38.07       31.14       
C           43.04       39.77       23.41       
C           42.09       39.86       24.37       
S           44.58       39.63       24.21       
H           41.85       39.48       26.47       
H           41.04       39.84       24.17       
C           42.53       39.62       25.67       
C           43.84       39.57       25.82       
C           43.28       39.96       19.54       
C           41.99       40.28       19.86       
S           44.2        39.49       20.95       
H           40.92       40.51       21.83       
H           41.41       40.72       19.1        
C           41.8        40.16       21.29       
C           42.87       39.87       21.99       
C           44.47       40.46       15.89       
C           45.45       39.84       16.58       
S           43.14       40.8        16.93       
H           45.88       39.22       18.68       
H           46.4        39.57       16.1        
C           45.21       39.66       17.95       
C           43.99       40.15       18.3        
C           45.55       40.8        9.5         
C           45.12       39.8        10.37       
C           45.59       42.16       10.01       
C           44.94       40.04       11.76       
C           44.94       41.36       12.22       
C           44.64       38.95       12.61       
C           45.18       42.4        11.3        
C           45.13       43.85       11.77       
N           45.03       44.05       13.25       
C           44.91       42.97       14.15       
C           44.7        37.55       12.18       
N           44.89       37.31       10.81       
C           44.92       38.36       9.88        
O           44.65       36.59       12.92       
O           44.84       37.94       8.72        
O           45.41       44.76       11.0        
O           45.04       43.21       15.32       
C           44.38       45.27       13.7        
C           45.24       35.99       10.33       
H           44.19       45.32       14.71       
H           43.39       45.39       13.23       
H           44.96832    46.16978    13.52004    
H           44.68       35.66       9.48        
H           44.95       35.3        11.08       
H           46.30006    35.93346    10.08265    
H           45.91       42.99       9.44        
H           44.5        38.37       14.65       
C           44.6        39.24       13.93       
C           44.75       41.61       13.61       
C           44.65       40.53       14.46       
C           47.36       40.12       6.06        
C           46.49       41.17       5.89        
S           47.24       39.51       7.64        
H           45.19       42.35       7.22        
H           46.51       41.72       4.98        
C           45.78       41.45       7.12        
C           46.06       40.63       8.15        
C           49.94       39.11       3.29        
C           49.67       38.02       4.09        
S           49.07       40.47       3.93        
H           48.35       37.55       5.81        
H           50.09       37.01       3.91        
C           48.66       38.25       5.11        
C           48.21       39.51       5.12        
C           52.96       38.53       0.93        
C           52.39       39.76       0.61        
S           51.92       37.82       2.08        
H           50.87       41.14       1.3         
H           52.64       40.43       -0.21       
C           51.36       40.19       1.48        
C           50.99       39.24       2.35        
C           57.24       36.27       -3.5        
C           56.5        35.61       -2.44       
C           57.34       37.64       -3.51       
C           55.84       36.4        -1.46       
C           55.83       37.83       -1.55       
C           55.11       35.85       -0.45       
C           56.71       38.45       -2.56       
C           56.93       39.91       -2.75       
N           56.2        40.68       -1.84       
C           55.29       40.11       -0.92       
C           55.12       34.37       -0.27       
N           55.9        33.61       -1.16       
C           56.49       34.15       -2.25       
O           54.48       33.87       0.64        
O           57.09       33.32       -2.92       
O           57.72       40.3        -3.57       
O           54.82       40.95       -0.17       
C           55.82       41.97       -2.34       
C           56.02       32.16       -0.9        
H           54.92       42.37       -1.8        
H           55.56       41.81       -3.44       
H           56.60206    42.72362    -2.24757    
H           56.15       31.5        -1.82       
H           55.07       31.88       -0.49       
H           56.80058    31.97208    -0.16279    
H           58.0        38.09       -4.27       
H           53.75       36.08       1.06        
C           54.3        36.65       0.31        
C           55.07       38.65       -0.72       
C           54.16       38.04       0.22        
C           60.11       34.62       -5.49       
C           58.93       34.44       -6.21       
S           59.77       35.45       -4.04       
H           56.72       35.09       -6.03       
H           58.83       33.74       -7.02       
C           57.79       35.07       -5.63       
C           58.12       35.74       -4.49       
C           63.88       33.8        -5.56       
C           63.24       32.73       -6.14       
S           62.84       35.14       -5.36       
H           61.17       32.22       -6.71       
H           63.72       31.79       -6.35       
C           61.81       32.94       -6.27       
C           61.47       34.13       -5.76       
C           67.55       33.29       -4.39       
C           67.32       34.63       -4.44       
S           66.17       32.45       -5.07       
H           65.6        35.97       -4.59       
H           68.09       35.41       -4.11       
C           65.98       34.99       -4.85       
C           65.25       33.93       -5.28       
C           73.43       30.28       -3.79       
C           72.92       31.26       -4.61       
C           72.59       30.02       -2.71       
C           71.58       31.78       -4.45       
C           70.69       31.38       -3.47       
C           71.07       32.75       -5.31       
C           71.34       30.5        -2.55       
C           70.58       30.09       -1.3        
N           69.22       30.43       -1.22       
C           68.58       31.21       -2.19       
C           71.84       33.41       -6.35       
N           73.17       32.93       -6.42       
C           73.73       31.88       -5.74       
O           71.46       34.29       -7.05       
O           74.91       31.62       -5.96       
O           71.14       29.42       -0.4        
O           67.47       31.66       -1.9        
C           68.35       29.57       -0.38       
C           74.2        33.89       -6.9        
H           68.75       28.54       -0.3        
H           67.37       29.5        -0.93       
H           68.22049    29.96574    0.62733     
H           75.04       33.92       -6.19       
H           73.73       34.85       -6.99       
H           74.54576    33.74478    -7.92345    
H           72.86       29.42       -1.9        
H           69.38       33.91       -5.88       
C           69.76       33.17       -5.18       
C           69.35       31.8        -3.35       
C           68.88       32.78       -4.14       
C           77.31       29.16       -3.47       
C           76.54       28.09       -3.86       
S           76.21       30.43       -3.18       
H           74.44       27.56       -4.29       
H           76.94       27.08       -3.91       
C           75.13       28.34       -4.04       
C           74.83       29.63       -3.8        
C           81.17       29.02       -3.37       
C           80.82       29.85       -2.34       
S           79.81       28.43       -4.17       
H           78.88       30.67       -1.61       
H           81.49       30.46       -1.83       
C           79.41       29.94       -2.21       
C           78.69       29.25       -3.15       
C           84.38       28.51       -5.49       
C           84.69       28.55       -4.13       
S           82.62       28.67       -5.57       
H           83.72       28.92       -2.15       
H           85.68       28.41       -3.71       
C           83.67       28.85       -3.22       
C           82.48       28.72       -3.88       
C           88.27       26.32       -10.27      
C           87.51       25.67       -9.3        
C           88.23       27.76       -10.29      
C           86.75       26.47       -8.36       
C           86.78       27.87       -8.4        
C           85.86       25.88       -7.52       
C           87.54       28.56       -9.41       
C           87.45       30.05       -9.55       
N           86.78       30.82       -8.5        
C           85.97       30.15       -7.56       
C           85.73       24.45       -7.3        
N           86.47       23.69       -8.16       
C           87.34       24.15       -9.14       
O           84.99       23.92       -6.47       
O           87.99       23.39       -9.82       
O           88.11       30.63       -10.45      
O           85.48       30.81       -6.71       
C           86.69       32.26       -8.8        
C           86.17       22.25       -8.2        
H           85.93       32.76       -8.19       
H           86.4        32.4        -9.86       
H           87.61895    32.78078    -8.56776    
H           86.47       21.78       -9.18       
H           85.12       22.28       -8.19       
H           86.6075     21.67843    -7.38146    
H           88.74       28.28       -11.09      
H           84.54       26.14       -5.92       
C           85.18       26.66       -6.62       
C           86.01       28.7        -7.53       
C           85.26       28.06       -6.5        
C           90.72       25.41       -13.2       
C           89.54       24.7        -13.37      
S           90.64       26.3        -11.68      
H           87.66       24.32       -12.35      
H           89.39       24.09       -14.2       
C           88.58       24.81       -12.27      
C           89.0        25.78       -11.43      
C           94.19       25.91       -14.83      
C           93.77       24.72       -15.24      
S           93.01       26.78       -13.91      
H           92.06       23.41       -14.72      
H           94.35       23.95       -15.8       
C           92.49       24.39       -14.71      
C           91.9        25.42       -14.01      
C           97.57       27.93       -14.68      
C           97.33       27.7        -15.96      
S           96.36       27.2        -13.7       
H           95.75       26.67       -17.23      
H           97.94       28.11       -16.73      
C           96.17       26.96       -16.24      
C           95.45       26.6        -15.1       
C           102.19      32.01       -12.2       
C           101.28      32.13       -13.25      
C           102.26      30.81       -11.47      
C           100.41      31.0        -13.56      
C           100.43      29.86       -12.8       
C           99.54       31.05       -14.7       
C           101.42      29.76       -11.76      
C           101.55      28.55       -10.89      
N           100.67      27.48       -11.29      
C           99.75       27.55       -12.33      
C           99.55       32.23       -15.56      
N           100.33      33.33       -15.15      
C           101.13      33.39       -14.01      
O           98.79       32.31       -16.45      
O           101.7       34.45       -13.76      
O           102.11      28.52       -9.79       
O           99.12       26.55       -12.54      
C           100.6       26.14       -10.66      
C           100.04      34.63       -15.76      
H           100.83      25.38       -11.37      
H           99.58       26.07       -10.35      
H           101.30173   25.91086    -9.85802    
H           99.84       35.45       -15.1       
H           99.05       34.56       -16.22      
H           100.79574   34.74407    -16.53713   
H           102.99      30.77       -10.65      
H           98.02       30.22       -15.81      
C           98.72       29.97       -15.03      
C           99.53       28.83       -13.07      
C           98.62       28.87       -14.18      
C           104.13      35.03       -10.64      
C           105.01      34.13       -11.07      
S           102.52      34.47       -10.88      
H           105.15      32.12       -12.16      
H           106.04      34.16       -10.77      
C           104.48      32.88       -11.59      
C           103.09      33.0        -11.64      
C           105.39      37.76       -7.94       
C           104.02      37.5        -7.88       
S           105.99      36.74       -9.24       
H           102.43      36.3        -8.8        
H           103.4       37.93       -7.08       
C           103.47      36.55       -8.75       
C           104.4       36.08       -9.63       
C           107.14      39.7        -5.01       
C           107.95      39.72       -6.12       
S           105.69      38.81       -5.44       
H           108.08      38.84       -8.13       
H           108.88      40.18       -6.24       
C           107.52      38.89       -7.21       
C           106.25      38.49       -7.06       
C           107.47      43.17       0.57        
C           107.75      43.52       -0.74       
C           107.02      41.86       0.81        
C           107.7       42.53       -1.69       
C           107.34      41.16       -1.44       
C           107.89      42.82       -3.08       
C           107.05      40.87       -0.15       
C           106.68      39.53       0.37        
N           106.54      38.61       -0.59       
C           106.83      38.77       -1.99       
C           108.09      44.21       -3.53       
N           108.26      45.16       -2.48       
C           108.16      44.92       -1.12       
O           108.08      44.53       -4.73       
O           108.4       45.84       -0.4        
O           106.43      39.33       1.56        
O           106.96      37.81       -2.73       
C           106.25      37.26       -0.14       
C           108.41      46.57       -2.83       
H           106.57      37.02       0.78        
H           106.72      36.66       -0.9        
H           105.17083   37.1109     -0.1755     
H           107.95      47.19       -2.07       
H           107.91      46.74       -3.72       
H           109.44232   46.89086    -2.9695     
H           106.7       41.64       1.82        
H           107.86      42.03       -5.13       
C           107.68      41.83       -4.06       
C           107.18      40.13       -2.48       
C           107.42      40.47       -3.8        
C           107.43      44.83       4.19        
C           107.05      45.79       3.25        
S           107.65      43.32       3.36        
H           106.66      45.95       1.07        
H           106.88      46.84       3.54        
C           106.89      45.26       1.92        
C           107.2       43.93       1.77        
C           107.8       45.71       8.04        
C           108.3       44.43       7.86        
S           107.37      46.4        6.5         
H           108.73      43.13       6.09        
H           108.78      43.88       8.62        
C           108.25      44.03       6.47        
C           107.62      44.91       5.62        
C           107.86      47.21       11.68       
C           107.56      48.21       10.77       
S           108.02      45.77       10.81       
H           107.2       48.46       8.65        
H           107.31      49.24       11.12       
C           107.55      47.83       9.43        
C           107.82      46.48       9.23        
C           106.51      49.71       17.64       
C           107.68      49.12       17.11       
C           105.27      49.51       16.89       
C           107.56      48.53       15.79       
C           106.41      48.46       15.0        
C           108.75      48.08       15.15       
C           105.22      48.91       15.66       
C           103.91      48.63       15.02       
N           103.9       47.99       13.74       
C           105.04      47.65       13.02       
C           110.07      48.14       15.77       
N           110.13      48.71       17.02       
C           109.02      49.2        17.77       
O           111.07      47.72       15.16       
O           109.22      49.64       18.86       
O           102.91      48.96       15.58       
O           104.92      46.99       11.99       
C           102.67      47.91       12.99       
C           111.31      48.34       17.81       
H           102.77      47.54       12.0        
H           102.22      48.9        12.91       
H           101.88601   47.28418    13.41638    
H           111.47      49.1        18.62       
H           112.16      48.33       17.1        
H           111.21895   47.32441    18.19522    
H           104.38      49.88       17.23       
H           109.59      47.35       13.46       
C           108.67      47.68       13.88       
C           106.39      47.89       13.66       
C           107.56      47.53       13.07       
C           105.21      51.99       20.64       
C           106.39      52.48       20.16       
S           104.73      50.7        19.62       
H           108.07      51.87       18.76       
H           106.93      53.24       20.76       
C           107.07      51.66       19.23       
C           106.22      50.68       18.74       
C           102.3       53.1        23.01       
C           103.49      53.67       23.46       
S           102.62      52.38       21.47       
H           105.69      53.41       23.0        
H           103.5       54.3        24.37       
C           104.66      53.23       22.77       
C           104.31      52.41       21.71       
C           98.94       53.91       24.8        
C           98.63       53.01       23.79       
S           100.69      54.11       24.95       
H           99.61       52.01       22.16       
H           97.67       52.8        23.34       
C           99.79       52.55       23.05       
C           100.91      53.14       23.48       
C           94.56       56.46       29.1        
C           94.72       55.15       28.54       
C           95.36       57.45       28.46       
C           95.72       54.85       27.55       
C           96.57       55.93       27.05       
C           95.92       53.57       26.94       
C           96.41       57.2        27.64       
C           97.33       58.32       27.38       
N           98.25       58.14       26.36       
C           98.29       56.94       25.5        
C           95.0        52.47       27.26       
N           94.18       52.67       28.31       
C           93.92       53.9        28.93       
O           95.05       51.4        26.67       
O           92.96       53.94       29.77       
O           97.13       59.37       27.94       
O           99.18       56.88       24.6        
C           98.75       59.37       25.78       
C           93.74       51.52       29.02       
H           97.97       60.19       25.88       
H           98.96       59.25       24.73       
H           99.7128     59.61758    26.22701    
H           93.95       51.78       30.1        
H           94.49       50.75       28.82       
H           92.76259    51.1517     28.70836    
H           95.27       58.45       28.89       
H           97.09       52.4        25.59       
C           96.88       53.42       25.95       
C           97.5        55.72       26.03       
C           97.83       54.43       25.59       
C           91.95       58.35       31.4        
C           92.29       57.19       31.94       
S           93.0        58.6        29.99       
H           93.67       55.44       31.54       
H           91.77       56.83       32.8        
C           93.28       56.41       31.26       
C           93.71       57.03       30.12       
C           88.74       60.36       32.47       
C           89.71       61.26       32.02       
S           89.42       58.75       32.38       
H           91.74       61.24       31.27       
H           89.51       62.33       31.96       
C           90.92       60.7        31.65       
C           90.94       59.33       31.75       
H           68.73       31.81       33.81       
H           87.68       60.65       32.18       
