512

C           57.76       11.26       44.05       
C           58.39       12.48       44.09       
S           56.33       11.39       44.92       
H           58.22       14.42       45.16       
H           59.31       12.66       43.59       
C           57.81       13.45       44.88       
C           56.76       12.94       45.52       
C           60.27       7.07        39.58       
C           58.97       7.52        39.88       
C           61.23       7.42        40.52       
C           58.72       8.34        40.99       
C           59.76       8.69        41.9        
C           57.48       8.89        41.28       
C           61.02       8.09        41.7        
C           62.18       8.37        42.59       
N           61.91       9.16        43.68       
C           60.65       9.74        43.92       
C           56.27       8.59        40.45       
N           56.5        7.72        39.38       
C           57.79       7.19        39.0        
O           55.18       9.07        40.76       
O           57.87       6.56        37.95       
O           63.28       7.82        42.37       
O           60.56       10.5        44.89       
C           63.04       9.53        44.52       
C           55.37       7.36        38.56       
H           63.93       9.45        43.94       
H           62.89       10.6        44.81       
H           63.19498    8.82553     45.33719    
H           55.62       7.38        37.47       
H           54.69       8.14        38.49       
H           54.8915     6.42411     38.84851    
H           62.31       7.15        40.29       
H           56.3        10.18       42.36       
C           57.26       9.75        42.29       
C           59.52       9.55        43.02       
C           58.23       10.16       43.21       
C           61.53       4.37        36.98       
C           62.43       5.45        37.03       
S           60.31       4.66        38.02       
H           62.59       7.4         38.16       
H           63.42       5.44        36.53       
C           62.02       6.46        37.93       
C           60.89       6.22        38.53       
C           61.34       1.01        34.94       
C           62.65       1.46        34.86       
S           60.44       2.03        36.03       
H           63.8        3.1         35.79       
H           63.41       0.98        34.26       
C           62.85       2.69        35.62       
C           61.73       3.15        36.26       
C           59.99       -1.75       32.62       
C           58.96       -0.99       33.04       
S           61.48       -1.13       33.32       
H           58.56       0.72        34.35       
H           57.93       -1.07       32.71       
C           59.3        0.06        33.89       
C           60.61       0.11        34.12       
C           59.64       -6.99       28.81       
C           58.88       -6.67       29.94       
C           60.61       -6.17       28.34       
C           59.13       -5.38       30.47       
C           60.15       -4.5        30.01       
C           58.42       -4.88       31.61       
C           60.93       -4.97       28.91       
C           61.9        -4.15       28.21       
N           62.12       -2.87       28.8        
C           61.43       -2.42       29.94       
C           57.4        -5.68       32.36       
N           57.19       -6.96       31.8        
C           57.83       -7.45       30.63       
O           56.73       -5.19       33.26       
O           57.65       -8.64       30.42       
O           62.33       -4.54       27.14       
O           61.8        -1.38       30.43       
C           63.2        -2.02       28.28       
C           55.87       -7.49       32.18       
H           63.16       -1.03       28.65       
H           63.12       -1.9        27.18       
H           64.16055    -2.45084    28.56252    
H           55.29       -7.89       31.33       
H           55.29       -6.57       32.42       
H           55.94717    -8.28973    32.9166     
H           61.25       -6.51       27.53       
H           58.26       -3.39       33.03       
C           58.78       -3.7        32.17       
C           60.39       -3.21       30.59       
C           59.75       -2.85       31.71       
C           59.65       -10.13      26.29       
C           58.42       -9.97       26.82       
S           60.65       -8.9        26.89       
H           57.42       -8.71       28.25       
H           57.6        -10.64      26.59       
C           58.29       -8.87       27.68       
C           59.41       -8.07       27.79       
C           60.91       -12.64      23.59       
C           59.8        -13.16      24.18       
S           61.31       -11.08      24.26       
H           58.36       -12.6       25.76       
H           59.25       -14.02      23.73       
C           59.3        -12.31      25.23       
C           59.99       -11.15      25.34       
C           62.32       -14.42      20.32       
C           63.15       -13.36      20.66       
S           60.95       -14.3       21.4        
H           63.42       -11.95      22.33       
H           64.13       -13.32      20.2        
C           62.77       -12.64      21.89       
C           61.64       -13.04      22.43       
C           61.1        -17.36      14.46       
C           61.76       -16.21      14.8        
C           60.67       -18.16      15.49       
C           61.98       -15.83      16.15       
C           61.51       -16.62      17.24       
C           62.62       -14.59      16.53       
C           60.87       -17.8       16.79       
C           60.24       -18.69      17.76       
N           60.48       -18.41      19.16       
C           61.19       -17.26      19.64       
C           63.08       -13.65      15.53       
N           62.88       -14.01      14.17       
C           62.31       -15.27      13.79       
O           63.83       -12.77      15.9        
O           62.23       -15.45      12.59       
O           59.61       -19.71      17.39       
O           61.55       -17.28      20.79       
C           59.52       -18.89      20.18       
C           63.25       -13.07      13.03       
H           58.62       -18.34      20.03       
H           59.81       -18.51      21.18       
H           59.41244    -19.97276   20.24454    
H           63.7        -13.51      12.14       
H           64.11       -12.4       13.34       
H           62.41642    -12.43167   12.73712    
H           60.11       -19.09      15.33       
H           63.01       -13.22      18.2        
C           62.77       -14.26      17.89       
C           61.72       -16.29      18.62       
C           62.38       -15.11      18.96       
C           59.34       -18.95      11.27       
C           60.42       -19.72      11.57       
S           59.25       -17.48      12.22       
H           62.04       -19.65      13.12       
H           60.63       -20.58      11.04       
C           61.22       -19.12      12.65       
C           60.65       -17.97      13.19       
C           56.63       -19.35      8.54        
C           56.54       -20.47      9.29        
S           57.78       -18.14      9.22        
H           57.62       -21.27      11.04       
H           55.83       -21.34      9.09        
C           57.5        -20.43      10.35       
C           58.26       -19.3       10.37       
C           55.45       -19.3       4.98        
C           54.29       -19.26      5.68        
S           56.76       -18.75      5.95        
H           53.73       -19.51      7.84        
H           53.26       -19.36      5.27        
C           54.53       -19.31      7.09        
C           55.83       -19.0       7.38        
C           55.39       -19.37      -1.61       
C           54.66       -18.68      -0.63       
C           56.55       -20.16      -1.15       
C           55.05       -18.76      0.71        
C           56.08       -19.66      1.14        
C           54.44       -17.94      1.66        
C           56.77       -20.41      0.16        
C           57.86       -21.36      0.48        
N           58.17       -21.56      1.88        
C           57.43       -20.86      2.9         
C           53.37       -16.95      1.38        
N           53.02       -16.92      0.05        
C           53.54       -17.81      -0.93       
O           52.85       -16.21      2.3         
O           53.04       -17.72      -2.04       
O           58.35       -21.95      -0.45       
O           57.69       -21.2       4.03        
C           59.32       -22.45      2.3         
C           51.8        -16.28      -0.29       
H           58.99       -23.5       2.23        
H           59.7        -22.24      3.3         
H           60.19103    -22.32149   1.65744     
H           51.7        -16.0       -1.36       
H           51.77       -15.35      0.37        
H           50.98249    -16.95895   -0.04752    
H           57.3        -20.53      -1.82       
H           54.17       -17.68      3.77        
C           54.66       -18.27      2.99        
C           56.44       -19.86      2.57        
C           55.52       -19.26      3.49        
C           56.01       -17.77      -5.26       
C           56.46       -19.06      -5.23       
S           55.23       -17.5       -3.74       
H           56.52       -20.82      -3.88       
H           56.99       -19.54      -6.06       
C           56.17       -19.8       -4.02       
C           55.57       -19.07      -3.08       
C           56.91       -15.05      -7.9        
C           55.7        -14.76      -7.38       
S           57.52       -16.51      -7.26       
H           54.25       -15.61      -6.05       
H           55.24       -13.83      -7.58       
C           55.21       -15.75      -6.56       
C           56.06       -16.75      -6.28       
C           59.67       -13.43      -10.14      
C           58.71       -12.46      -9.85       
S           59.19       -14.92      -9.39       
H           56.97       -12.2       -8.57       
H           58.86       -11.41      -9.97       
C           57.69       -12.85      -8.97       
C           57.78       -14.25      -8.7        
C           64.93       -12.05      -13.85      
C           64.28       -11.33      -12.83      
C           64.4        -13.28      -14.27      
C           63.12       -11.92      -12.23      
C           62.58       -13.14      -12.66      
C           62.53       -11.32      -11.1       
C           63.24       -13.82      -13.71      
C           62.93       -15.18      -14.12      
N           61.7        -15.69      -13.58      
C           60.98       -15.0       -12.6       
C           62.94       -10.0       -10.57      
N           64.09       -9.45       -11.09      
C           64.75       -9.96       -12.3       
O           62.23       -9.4        -9.71       
O           65.72       -9.26       -12.72      
O           63.44       -15.64      -15.11      
O           59.93       -15.44      -12.22      
C           61.33       -17.07      -13.88      
C           64.45       -8.07       -10.71      
H           61.43       -17.37      -14.94      
H           60.26       -17.15      -13.63      
H           61.84185    -17.79512   -13.2473    
H           65.51       -7.95       -10.95      
H           64.24       -7.96       -9.69       
H           63.85909    -7.37603    -11.30778   
H           64.93       -13.84      -15.05      
H           60.98       -11.24      -9.7        
C           61.43       -11.87      -10.51      
C           61.43       -13.68      -12.09      
C           60.81       -13.08      -10.91      
C           68.85       -11.84      -14.41      
C           68.16       -12.0       -15.58      
S           67.65       -11.62      -13.21      
H           66.12       -12.48      -16.32      
H           68.77       -12.06      -16.49      
C           66.75       -12.14      -15.47      
C           66.31       -11.88      -14.25      
C           72.52       -11.7       -13.08      
C           72.57       -11.92      -14.42      
S           70.9        -11.52      -12.58      
H           71.17       -11.97      -16.1       
H           73.49       -12.02      -14.93      
C           71.28       -11.9       -15.05      
C           70.25       -11.87      -14.18      
C           75.43       -11.92      -10.4       
C           75.97       -11.74      -11.67      
S           73.72       -11.95      -10.51      
H           75.18       -11.47      -13.73      
H           77.05       -11.72      -11.91      
C           75.0        -11.61      -12.68      
C           73.72       -11.72      -12.22      
C           78.29       -13.63      -4.74       
C           78.34       -14.11      -6.1        
C           77.41       -12.58      -4.56       
C           77.67       -13.4       -7.16       
C           76.73       -12.38      -6.86       
C           77.95       -13.75      -8.51       
C           76.57       -12.01      -5.53       
C           75.64       -10.99      -5.04       
N           75.02       -10.29      -6.11       
C           75.12       -10.63      -7.5        
C           78.88       -14.8       -8.91       
N           79.46       -15.45      -7.85       
C           79.31       -15.16      -6.44       
O           79.01       -14.98      -10.11      
O           80.07       -15.68      -5.68       
O           75.62       -10.72      -3.82       
O           74.32       -10.07      -8.2        
C           74.13       -9.07       -5.87       
C           80.56       -16.29      -8.24       
H           73.13       -9.3        -6.39       
H           74.54       -8.18       -6.45       
H           73.77594    -8.92421    -4.84947    
H           81.46       -16.0       -7.75       
H           80.8        -16.14      -9.26       
H           80.23489    -17.32311   -8.11718    
H           77.34       -12.12      -3.54       
H           77.13       -13.72      -10.45      
C           77.17       -13.14      -9.51       
C           76.08       -11.68      -7.93       
C           76.23       -12.13      -9.21       
C           80.52       -14.56      -1.69       
C           79.24       -14.68      -1.32       
S           80.72       -14.01      -3.3        
H           77.28       -14.33      -2.25       
H           78.89       -15.07      -0.38       
C           78.37       -14.28      -2.37       
C           79.01       -14.01      -3.53       
C           82.98       -16.16      0.87        
C           83.76       -15.86      -0.18       
S           81.35       -15.58      0.64        
H           83.32       -14.85      -2.22       
H           84.83       -16.18      -0.22       
C           83.01       -15.22      -1.22       
C           81.67       -15.03      -0.93       
C           84.48       -18.27      3.71        
C           83.43       -17.65      4.2         
S           84.64       -17.91      2.06        
H           81.7        -16.42      3.43        
H           83.14       -17.8       5.25        
C           82.67       -16.84      3.29        
C           83.33       -16.78      2.09        
C           88.07       -20.55      8.73        
C           88.36       -19.96      7.49        
C           86.76       -21.01      8.84        
C           87.39       -19.78      6.5         
C           86.06       -20.18      6.64        
C           87.64       -19.01      5.38        
C           85.79       -20.83      7.87        
C           84.46       -21.32      8.23        
N           83.46       -21.08      7.27        
C           83.65       -20.34      6.09        
C           88.9        -18.23      5.2         
N           89.92       -18.58      6.06        
C           89.75       -19.34      7.24        
O           89.01       -17.31      4.34        
O           90.72       -19.29      8.04        
O           84.18       -21.96      9.3         
O           82.71       -20.24      5.36        
C           82.06       -21.13      7.75        
C           91.23       -18.53      5.56        
H           81.5        -20.33      7.38        
H           82.03       -21.26      8.79        
H           81.59648    -22.00086   7.28648     
H           92.01       -18.51      6.3         
H           91.29       -17.63      4.95        
H           91.46693    -19.40369   4.95286     
H           86.62       -21.68      9.66        
H           86.88       -18.14      3.68        
C           86.61       -18.69      4.54        
C           85.03       -19.89      5.65        
C           85.32       -19.11      4.55        
C           89.8        -22.23      11.76       
C           90.57       -22.51      10.69       
S           88.56       -21.11      11.38       
H           90.47       -22.24      8.53        
H           91.46       -23.11      10.79       
C           90.06       -21.96      9.48        
C           88.98       -21.16      9.72        
C           90.98       -23.11      15.37       
C           89.74       -23.68      15.25       
S           91.44       -22.19      13.96       
H           88.14       -23.65      13.69       
H           89.3        -24.32      15.99       
C           89.18       -23.34      13.98       
C           90.0        -22.68      13.13       
C           93.43       -23.08      18.39       
C           92.22       -23.49      18.85       
S           93.29       -22.53      16.75       
H           90.32       -24.01      18.05       
H           92.06       -23.85      19.86       
C           91.28       -23.59      17.83       
C           91.67       -23.1       16.64       
C           98.14       -21.12      22.58       
C           96.78       -20.87      22.53       
C           98.73       -21.86      21.6        
C           95.96       -21.5       21.51       
C           96.61       -22.32      20.55       
C           94.57       -21.26      21.38       
C           97.98       -22.44      20.6        
C           98.72       -23.24      19.6        
N           97.96       -23.74      18.54       
C           96.58       -23.64      18.39       
C           93.8        -20.38      22.32       
N           94.63       -19.81      23.31       
C           96.04       -20.09      23.56       
O           92.54       -20.16      22.21       
O           96.54       -19.67      24.62       
O           99.91       -23.45      19.7        
O           95.94       -24.14      17.48       
C           98.7        -24.12      17.36       
C           93.98       -18.82      24.23       
H           99.52       -23.38      17.24       
H           98.17       -24.03      16.46       
H           99.14189    -25.11601   17.33194    
H           94.42       -18.81      25.15       
H           92.99       -19.13      24.29       
H           94.01699    -17.80652   23.83052    
H           99.74       -22.16      21.71       
H           92.81       -21.61      20.38       
C           93.86       -21.89      20.37       
C           95.83       -22.88      19.45       
C           94.42       -22.69      19.39       
C           100.34      -19.42      25.33       
C           100.59      -20.74      25.33       
S           99.31       -18.99      23.95       
H           100.12      -22.51      24.03       
H           101.32      -21.17      26.03       
C           99.99       -21.4       24.25       
C           99.03       -20.69      23.61       
C           101.75      -17.29      28.39       
C           100.97      -16.44      27.56       
S           101.67      -18.85      27.81       
H           100.02      -16.58      25.6        
H           100.84      -15.39      27.73       
C           100.49      -17.1       26.4        
C           100.75      -18.43      26.36       
C           104.12      -17.14      31.55       
C           102.88      -16.56      31.88       
S           104.02      -17.64      29.89       
H           100.97      -15.99      30.91       
H           102.74      -16.1       32.87       
C           101.93      -16.45      30.85       
C           102.37      -17.03      29.68       
C           109.72      -18.11      35.02       
C           108.37      -18.49      35.22       
C           110.02      -17.34      33.9        
C           107.39      -18.16      34.21       
C           107.74      -17.4       33.08       
C           106.05      -18.57      34.34       
C           109.09      -16.94      32.95       
C           109.48      -16.07      31.86       
N           108.44      -15.51      31.06       
C           107.09      -15.97      31.16       
C           105.58      -19.3       35.52       
N           106.47      -19.5       36.51       
C           107.83      -19.06      36.48       
O           104.36      -19.57      35.6        
O           108.51      -19.25      37.53       
O           110.64      -15.72      31.76       
O           106.34      -15.18      30.67       
C           108.83      -15.16      29.67       
C           105.92      -20.0       37.74       
H           107.93      -14.92      29.04       
H           109.33      -15.99      29.21       
H           109.47557   -14.28988   29.55071    
H           106.68      -20.29      38.39       
H           105.22      -20.83      37.63       
H           105.30727   -19.27153   38.27103    
H           111.04      -16.98      33.67       
H           104.1       -18.68      33.6        
C           105.09      -18.21      33.47       
C           106.65      -16.97      32.26       
C           105.29      -17.25      32.45       
C           113.13      -19.14      36.6        
C           112.26      -20.17      36.71       
S           112.37      -17.75      35.96       
H           110.34      -20.76      36.14       
H           112.42      -21.11      37.18       
C           111.09      -19.97      36.12       
C           110.94      -18.71      35.58       
C           116.77      -19.91      37.79       
C           116.7       -18.63      37.47       
S           115.15      -20.55      37.79       
H           115.15      -17.14      36.65       
H           117.56      -17.99      37.4        
C           115.39      -18.15      37.01       
C           114.47      -19.12      37.08       
C           119.31      -22.55      39.18       
C           119.99      -21.52      38.53       
S           117.63      -22.31      38.91       
H           119.55      -19.62      37.44       
H           121.09      -21.46      38.49       
C           119.12      -20.52      37.97       
C           117.87      -20.74      38.22       
C           122.27      -28.14      41.05       
C           122.3       -27.39      39.84       
C           121.4       -27.67      42.02       
C           121.47      -26.25      39.71       
C           120.62      -25.74      40.76       
C           121.6       -25.38      38.62       
C           120.58      -26.51      41.94       
C           119.67      -26.28      43.07       
N           118.98      -25.04      43.01       
C           119.03      -24.19      41.93       
C           122.57      -25.63      37.52       
N           123.27      -26.85      37.59       
C           123.25      -27.75      38.64       
O           122.74      -24.79      36.62       
O           123.82      -28.83      38.63       
O           119.63      -26.96      44.08       
O           118.4       -23.12      41.95       
C           117.88      -24.83      43.97       
C           124.26      -27.22      36.55       
H           117.16      -25.64      43.88       
H           117.28      -23.99      43.63       
H           118.21575   -24.48711   44.94867    
H           125.07      -27.75      37.05       
H           124.77      -26.37      36.12       
H           123.77239   -27.87254   35.82576    
H           121.44      -28.16      42.98       
H           121.0       -23.52      37.68       
C           120.94      -24.16      38.54       
C           119.87      -24.56      40.74       
C           120.07      -23.74      39.66       
C           124.1       -31.39      42.27       
C           123.29      -31.68      41.2        
S           123.99      -29.66      42.67       
H           121.93      -30.57      39.85       
H           123.02      -32.75      40.85       
C           122.64      -30.52      40.7        
C           122.93      -29.38      41.32       
C           126.02      -34.21      44.3        
C           126.28      -32.97      44.89       
S           124.68      -34.01      43.1        
H           125.85      -30.92      44.44       
H           126.86      -32.79      45.72       
C           125.61      -31.95      44.15       
C           124.83      -32.29      43.11       
H           56.47       13.3        46.48       
H           126.66      -35.04      44.25       
