512

C           65.13       0.94        1.06        
C           65.82       0.57        2.13        
S           64.82       2.68        1.03        
H           66.53       1.5         4.04        
H           66.1        -0.5        2.38        
C           65.98       1.59        3.07        
C           65.52       2.87        2.65        
C           63.25       -3.9        -2.93       
C           62.76       -3.42       -1.73       
C           64.26       -3.18       -3.62       
C           63.42       -2.32       -1.09       
C           64.43       -1.6        -1.76       
C           63.05       -1.83       0.11        
C           64.82       -2.04       -3.04       
C           65.91       -1.44       -3.81       
N           66.63       -0.43       -3.14       
C           66.34       0.03        -1.82       
C           62.08       -2.5        0.98        
N           61.4        -3.54       0.39        
C           61.67       -3.99       -0.95       
O           61.76       -2.1        2.08        
O           61.04       -5.0        -1.32       
O           66.27       -1.8        -4.9        
O           67.13       0.88        -1.3        
C           67.81       0.07        -3.85       
C           60.08       -3.83       0.9         
H           68.65       0.39        -3.19       
H           68.28       -0.61       -4.52       
H           67.5846     0.92231     -4.49099    
H           59.37       -4.0        0.11        
H           59.59       -3.0        1.34        
H           60.12924    -4.69517    1.56118     
H           64.53       -3.41       -4.61       
H           63.33       -0.5        1.69        
C           63.66       -0.79       0.68        
C           65.13       -0.5        -1.11       
C           64.69       -0.14       0.14        
C           61.66       -6.52       -5.45       
C           63.05       -6.83       -5.41       
S           61.25       -5.39       -4.26       
H           64.76       -5.88       -4.33       
H           63.49       -7.57       -6.08       
C           63.67       -5.86       -4.53       
C           62.85       -5.0        -3.85       
C           59.26       -8.73       -7.48       
C           58.5        -8.23       -6.44       
S           60.92       -8.27       -7.42       
H           58.96       -6.84       -4.67       
H           57.44       -8.35       -6.31       
C           59.35       -7.42       -5.58       
C           60.64       -7.38       -5.97       
C           57.17       -10.33      -10.37      
C           58.52       -10.4       -10.63      
S           57.05       -9.36       -8.89       
H           60.47       -9.8        -9.92       
H           58.89       -10.81      -11.56      
C           59.41       -9.83       -9.72       
C           58.81       -9.33       -8.64       
C           52.18       -13.47      -13.54      
C           52.28       -12.31      -12.68      
C           53.39       -14.0       -14.0       
C           53.5        -11.86      -12.16      
C           54.72       -12.52      -12.51      
C           53.56       -10.9       -11.14      
C           54.59       -13.49      -13.51      
C           55.75       -14.14      -14.08      
N           56.98       -13.84      -13.44      
C           57.14       -12.95      -12.39      
C           52.34       -10.22      -10.58      
N           51.14       -10.55      -11.21      
C           50.99       -11.58      -12.22      
O           52.39       -9.45       -9.64       
O           49.88       -11.8       -12.66      
O           55.74       -14.91      -15.03      
O           58.24       -13.03      -11.86      
C           58.04       -14.89      -13.65      
C           49.84       -10.25      -10.53      
H           57.63       -15.92      -13.63      
H           58.7        -15.02      -12.77      
H           58.63488    -14.65205   -14.53182   
H           49.03       -9.92       -11.3       
H           49.96       -9.47       -9.79       
H           49.51729    -11.07783   -9.89861    
H           53.45       -14.9       -14.67      
H           54.8        -9.7        -10.0       
C           54.82       -10.51      -10.64      
C           55.99       -12.07      -11.97      
C           56.06       -11.05      -11.03      
C           49.25       -15.85      -14.94      
C           48.98       -15.52      -13.66      
S           50.76       -15.22      -15.47      
H           49.99       -14.42      -12.11      
H           48.13       -15.84      -13.11      
C           50.0        -14.69      -13.13      
C           51.08       -14.45      -13.92      
C           47.59       -17.84      -17.78      
C           46.54       -17.19      -17.18      
S           49.15       -17.48      -17.12      
H           46.41       -15.74      -15.41      
H           45.52       -17.45      -17.44      
C           47.04       -16.36      -16.14      
C           48.43       -16.5       -15.91      
C           48.17       -20.1       -20.99      
C           46.83       -19.89      -20.73      
S           49.02       -19.48      -19.56      
H           45.42       -18.96      -19.18      
H           46.0        -20.23      -21.36      
C           46.46       -19.22      -19.54      
C           47.54       -18.82      -18.85      
C           50.16       -21.47      -27.1       
C           50.72       -20.8       -26.05      
C           49.08       -22.25      -26.77      
C           50.12       -20.84      -24.76      
C           49.08       -21.68      -24.45      
C           50.65       -20.12      -23.7       
C           48.59       -22.37      -25.52      
C           47.47       -23.36      -25.42      
N           46.83       -23.42      -24.13      
C           47.21       -22.56      -23.09      
C           51.83       -19.22      -23.77      
N           52.44       -19.26      -25.04      
C           51.93       -19.93      -26.2       
O           52.3        -18.62      -22.82      
O           52.55       -19.98      -27.26      
O           47.02       -23.98      -26.39      
O           46.54       -22.64      -22.05      
C           46.36       -24.78      -23.81      
C           53.39       -18.16      -25.31      
H           46.14       -24.87      -22.77      
H           47.14       -25.54      -23.99      
H           45.47008    -25.05594   -24.37568   
H           54.2        -18.41      -25.97      
H           53.98       -18.03      -24.39      
H           52.95053    -17.17298   -25.45409   
H           48.59       -22.9       -27.54      
H           50.44       -19.39      -21.77      
C           50.0        -20.1       -22.44      
C           48.39       -21.63      -23.23      
C           48.77       -20.74      -22.2       
C           50.81       -20.62      -30.87      
C           50.98       -21.97      -30.69      
S           50.31       -19.83      -29.44      
H           50.74       -23.33      -28.97      
H           51.47       -22.6       -31.42      
C           50.58       -22.36      -29.38      
C           50.4        -21.27      -28.52      
C           52.09       -18.59      -33.93      
C           51.28       -17.8       -33.19      
S           52.12       -20.19      -33.29      
H           50.1        -17.89      -31.29      
H           50.96       -16.75      -33.57      
C           50.81       -18.42      -32.02      
C           51.12       -19.72      -31.99      
C           53.58       -17.24      -37.26      
C           53.98       -18.53      -37.15      
S           52.46       -16.84      -35.97      
H           53.53       -20.28      -35.93      
H           54.57       -19.06      -37.9       
C           53.46       -19.21      -36.01      
C           52.72       -18.38      -35.2       
C           55.76       -13.25      -42.07      
C           54.52       -13.42      -41.51      
C           56.8        -14.05      -41.61      
C           54.32       -14.42      -40.45      
C           55.41       -15.24      -40.02      
C           53.07       -14.62      -39.83      
C           56.65       -14.98      -40.61      
C           57.91       -15.69      -40.16      
N           57.74       -16.46      -39.0       
C           56.44       -16.84      -38.45      
C           51.83       -13.81      -40.09      
N           51.98       -12.89      -41.13      
C           53.23       -12.62      -41.84      
O           50.8        -13.97      -39.42      
O           53.17       -11.84      -42.74      
O           59.01       -15.54      -40.67      
O           56.53       -17.53      -37.41      
C           58.85       -17.33      -38.64      
C           50.71       -12.36      -41.72      
H           59.3        -17.69      -39.6       
H           58.6        -18.13      -37.96      
H           59.6693     -16.79347   -38.16147   
H           50.81       -11.3       -41.97      
H           49.86       -12.51      -40.99      
H           50.49325    -12.77905   -42.70261   
H           57.83       -13.86      -41.9       
H           51.93       -15.67      -38.36      
C           52.9        -15.56      -38.84      
C           55.2        -16.16      -38.92      
C           54.01       -16.34      -38.35      
C           57.7        -10.96      -44.67      
C           56.85       -10.19      -43.95      
S           57.45       -12.61      -44.18      
H           55.36       -10.39      -42.35      
H           56.83       -9.07       -43.99      
C           56.0        -10.9       -43.03      
C           56.31       -12.22      -42.95      
C           60.78       -10.67      -46.92      
C           60.23       -9.42       -46.9       
S           59.84       -11.92      -46.09      
H           58.54       -8.43       -45.88      
H           60.55       -8.64       -47.48      
C           59.11       -9.36       -46.08      
C           58.8        -10.63      -45.58      
C           63.66       -11.53      -49.41      
C           63.52       -12.5       -48.51      
S           62.52       -10.3       -49.02      
H           62.31       -13.21      -46.84      
H           64.14       -13.35      -48.56      
C           62.46       -12.45      -47.6       
C           61.78       -11.24      -47.76      
C           68.78       -11.59      -53.67      
C           68.15       -10.56      -52.91      
C           68.13       -12.82      -53.66      
C           67.06       -10.86      -52.13      
C           66.45       -12.12      -52.11      
C           66.43       -9.93       -51.29      
C           67.03       -13.05      -52.9       
C           66.53       -14.39      -53.06      
N           65.4        -14.7       -52.3       
C           64.7        -13.78      -51.43      
C           66.84       -8.52       -51.21      
N           67.95       -8.25       -52.0       
C           68.69       -9.19       -52.8       
O           66.26       -7.6        -50.61      
O           69.72       -8.81       -53.34      
O           66.95       -15.15      -53.93      
O           63.68       -14.16      -50.88      
C           64.72       -15.97      -52.62      
C           68.01       -6.91       -52.59      
H           64.79       -16.29      -53.65      
H           63.68       -15.79      -52.43      
H           65.20166    -16.76079   -52.04488   
H           69.03       -6.49       -52.43      
H           67.47       -6.23       -51.98      
H           67.60934    -6.84888    -53.60185   
H           68.58       -13.56      -54.24      
H           65.0        -9.4        -49.98      
C           65.4        -10.27      -50.49      
C           65.33       -12.42      -51.3       
C           64.73       -11.5       -50.44      
C           72.24       -12.13      -55.41      
C           72.4        -11.9       -54.06      
S           70.62       -11.87      -55.88      
H           71.04       -11.93      -52.24      
H           73.41       -12.0       -53.63      
C           71.17       -11.73      -53.33      
C           70.12       -11.69      -54.22      
C           75.56       -11.74      -57.39      
C           74.53       -12.04      -58.32      
S           74.9        -11.8       -55.79      
H           72.44       -12.56      -58.33      
H           74.81       -11.98      -59.42      
C           73.28       -12.35      -57.7       
C           73.32       -12.23      -56.37      
C           79.22       -10.56      -58.35      
C           79.24       -11.18      -57.11      
S           77.62       -10.63      -59.02      
H           77.79       -12.37      -55.8       
H           80.08       -11.24      -56.5       
C           77.97       -11.78      -56.75      
C           76.95       -11.43      -57.6       
C           84.52       -7.05       -60.39      
C           84.25       -8.4        -60.39      
C           83.53       -6.14       -60.05      
C           82.91       -8.84       -59.93      
C           81.82       -7.94       -59.62      
C           82.62       -10.24      -59.78      
C           82.2        -6.56       -59.69      
C           81.24       -5.54       -59.35      
N           79.94       -5.99       -59.04      
C           79.57       -7.32       -58.85      
C           83.55       -11.29      -60.24      
N           84.82       -10.82      -60.71      
C           85.18       -9.46       -60.85      
O           83.19       -12.45      -60.37      
O           86.25       -9.26       -61.47      
O           81.53       -4.34       -59.45      
O           78.46       -7.54       -58.37      
C           78.82       -5.12       -59.46      
C           85.94       -11.72      -60.82      
H           78.04       -5.77       -59.78      
H           79.22       -4.6        -60.31      
H           78.48319    -4.42575    -58.69014   
H           86.18       -11.74      -61.85      
H           85.61       -12.74      -60.58      
H           86.7307     -11.56328   -60.08629   
H           83.65       -5.09       -60.1       
H           81.23       -11.67      -59.18      
C           81.4        -10.64      -59.21      
C           80.56       -8.38       -59.14      
C           80.38       -9.76       -58.88      
C           88.32       -6.04       -60.94      
C           87.6        -5.28       -61.82      
S           87.31       -6.92       -59.81      
H           85.44       -5.0        -62.41      
H           88.04       -4.6        -62.57      
C           86.17       -5.51       -61.77      
C           85.91       -6.45       -60.75      
C           91.94       -6.41       -59.47      
C           92.13       -5.94       -60.75      
S           90.3        -6.73       -59.09      
H           90.73       -5.49       -62.47      
H           93.02       -5.55       -61.21      
C           90.88       -5.86       -61.45      
C           89.75       -6.14       -60.68      
C           94.01       -6.6        -56.26      
C           94.88       -6.55       -57.29      
S           92.41       -6.58       -56.82      
H           94.82       -6.7        -59.47      
H           95.96       -6.61       -57.16      
C           94.28       -6.69       -58.55      
C           92.93       -6.61       -58.46      
C           95.29       -7.23       -49.75      
C           94.79       -8.07       -50.72      
C           95.76       -5.97       -50.19      
C           94.72       -7.58       -52.08      
C           95.04       -6.28       -52.5       
C           94.26       -8.46       -53.12      
C           95.58       -5.46       -51.47      
C           96.08       -4.1        -51.85      
N           96.04       -3.77       -53.27      
C           95.44       -4.59       -54.25      
C           93.89       -9.82       -52.82      
N           93.91       -10.16      -51.47      
C           94.32       -9.39       -50.4       
O           93.68       -10.65      -53.7       
O           94.24       -9.93       -49.33      
O           96.57       -3.42       -51.0       
O           95.61       -4.26       -55.43      
C           96.42       -2.4        -53.71      
C           93.56       -11.64      -51.1       
H           96.52       -2.41       -54.85      
H           97.47       -2.27       -53.34      
H           95.7247     -1.67717    -53.28318   
H           94.42       -12.0       -50.45      
H           93.46       -12.23      -51.99      
H           92.55306    -11.70293   -50.68743   
H           96.3        -5.24       -49.54      
H           93.72       -8.7        -55.18      
C           94.09       -8.04       -54.44      
C           94.93       -5.94       -53.88      
C           94.43       -6.79       -54.87      
C           97.06       -7.78       -46.28      
C           97.13       -9.01       -46.95      
S           96.34       -6.51       -47.23      
H           96.63       -9.67       -48.89      
H           97.55       -9.96       -46.56      
C           96.6        -8.83       -48.2       
C           96.04       -7.59       -48.53      
C           98.14       -7.91       -42.54      
C           98.0        -6.58       -42.85      
S           97.77       -8.84       -43.9       
H           97.35       -5.4        -44.69      
H           98.26       -5.83       -42.07      
C           97.57       -6.38       -44.22      
C           97.54       -7.55       -44.98      
C           99.83       -9.54       -39.46      
C           98.95       -10.44      -40.08      
S           99.89       -8.04       -40.44      
H           97.4        -10.43      -41.75      
H           98.8        -11.54      -39.74      
C           98.12       -9.88       -41.13      
C           98.6        -8.68       -41.45      
C           103.98      -10.63      -34.47      
C           103.89      -11.14      -35.77      
C           103.02      -9.62       -34.13      
C           102.82      -10.73      -36.6       
C           101.78      -9.9        -36.13      
C           102.75      -11.18      -37.93      
C           101.86      -9.43       -34.81      
C           100.85      -8.43       -34.22      
N           99.74       -8.01       -35.04      
C           99.63       -8.55       -36.36      
C           103.79      -12.1       -38.58      
N           104.76      -12.54      -37.69      
C           104.91      -12.13      -36.32      
O           103.64      -12.6       -39.71      
O           105.91      -12.62      -35.77      
O           100.97      -8.11       -33.01      
O           98.67       -8.17       -37.03      
C           98.64       -7.09       -34.72      
C           105.99      -13.0       -38.41      
H           97.74       -7.65       -34.7       
H           98.49       -6.33       -35.52      
H           98.71164    -6.55269    -33.77434   
H           106.8       -12.43      -38.0       
H           105.95      -12.71      -39.48      
H           106.23032   -14.05595   -38.2862    
H           103.11      -9.11       -33.18      
H           101.75      -11.14      -39.75      
C           101.72      -10.79      -38.74      
C           100.68      -9.5        -36.92      
C           100.65      -9.94       -38.28      
C           107.32      -10.12      -32.35      
C           106.37      -10.65      -31.52      
S           106.62      -9.95       -33.98      
H           104.3       -11.32      -31.65      
H           106.58      -10.88      -30.5       
C           105.11      -10.9       -32.15      
C           105.16      -10.68      -33.56      
C           111.02      -9.35       -31.36      
C           110.69      -8.43       -32.34      
S           109.74      -10.49      -31.07      
H           108.77      -8.04       -33.46      
H           111.44      -7.79       -32.79      
C           109.28      -8.59       -32.69      
C           108.62      -9.61       -32.02      
C           114.04      -10.09      -29.08      
C           114.31      -8.88       -29.78      
S           112.38      -10.6       -29.31      
H           113.34      -7.94       -31.53      
H           115.3       -8.39       -29.79      
C           113.25      -8.59       -30.74      
C           112.21      -9.41       -30.6       
C           118.29      -13.02      -24.78      
C           117.63      -11.77      -24.74      
C           117.94      -13.92      -25.84      
C           116.82      -11.43      -25.81      
C           116.39      -12.3       -26.87      
C           116.09      -10.21      -25.86      
C           117.08      -13.57      -26.85      
C           116.92      -14.59      -27.92      
N           115.94      -14.29      -28.9       
C           115.23      -13.04      -28.94      
C           116.16      -9.15       -24.83      
N           117.1       -9.45       -23.84      
C           117.96      -10.64      -23.77      
O           115.36      -8.16       -24.87      
O           118.74      -10.65      -22.86      
O           117.58      -15.57      -28.03      
O           114.5       -12.98      -29.89      
C           115.31      -15.51      -29.44      
C           117.43      -8.35       -22.95      
H           114.34      -15.18      -29.76      
H           115.26      -16.34      -28.71      
H           115.85266   -15.83419   -30.32799   
H           117.75      -8.72       -22.0       
H           116.44      -7.97       -22.77      
H           118.0867    -7.59175    -23.37651   
H           118.37      -14.94      -25.88      
H           114.73      -8.87       -26.99      
C           115.24      -9.88       -26.96      
C           115.53      -11.94      -27.96      
C           115.04      -10.67      -28.1       
C           121.54      -13.99      -22.83      
C           120.61      -14.91      -22.53      
S           120.94      -12.71      -23.82      
H           118.51      -15.29      -23.19      
H           120.73      -15.75      -21.97      
C           119.36      -14.59      -23.21      
C           119.37      -13.46      -23.93      
C           125.1       -14.27      -21.17      
C           125.22      -13.81      -22.49      
S           123.38      -14.58      -20.87      
H           123.88      -13.17      -24.12      
H           126.23      -13.59      -22.85      
C           123.96      -13.53      -23.11      
C           122.93      -13.96      -22.38      
C           127.6       -13.27      -18.35      
C           126.73      -14.24      -17.9       
S           127.47      -13.35      -20.15      
H           125.07      -15.59      -18.55      
H           126.77      -14.5       -16.84      
C           125.87      -14.86      -18.82      
C           126.03      -14.39      -20.06      
C           132.14      -9.31       -15.45      
C           131.8       -10.68      -15.32      
C           131.41      -8.61       -16.44      
C           130.81      -11.27      -16.11      
C           130.05      -10.51      -17.03      
C           130.38      -12.6       -15.98      
C           130.42      -9.19       -17.19      
C           129.85      -8.25       -18.17      
N           128.92      -8.91       -19.01      
C           128.32      -10.24      -18.83      
C           131.04      -13.52      -14.99      
N           132.04      -12.93      -14.24      
C           132.53      -11.6       -14.33      
O           130.71      -14.72      -14.8       
O           133.54      -11.24      -13.68      
O           130.06      -7.06       -18.12      
O           127.31      -10.44      -19.44      
C           128.61      -8.29       -20.29      
C           132.88      -13.78      -13.41      
H           128.16      -7.34       -20.19      
H           128.0       -8.9        -20.93      
H           129.50621   -8.15156    -20.89476   
H           133.94      -13.52      -13.56      
H           132.77      -14.83      -13.75      
H           132.60618   -13.70073   -12.35794   
H           131.72      -7.6        -16.67      
H           129.18      -14.18      -16.53      
C           129.4       -13.15      -16.76      
C           128.99      -11.09      -17.85      
C           128.56      -12.44      -17.66      
C           134.45      -6.41       -13.95      
C           133.94      -7.16       -12.9       
S           134.0       -7.15       -15.49      
H           132.74      -8.93       -12.6       
H           133.97      -6.77       -11.85      
C           133.25      -8.31       -13.33      
C           133.12      -8.39       -14.72      
C           135.95      -2.9        -13.1       
C           135.43      -2.82       -14.38      
S           135.72      -4.44       -12.41      
H           134.54      -4.26       -15.82      
H           135.51      -2.0        -15.05      
C           134.88      -4.07       -14.83      
C           134.93      -5.03       -13.87      
H           65.92       3.8         3.04        
H           136.54      -2.08       -12.71      
