512

C           69.44       18.2        28.18       
C           70.41       18.62       27.34       
S           69.32       19.44       29.34       
H           71.71       20.33       26.84       
H           70.62       18.17       26.38       
C           71.1        19.84       27.57       
C           70.39       20.51       28.63       
C           65.75       12.75       27.1        
C           65.43       14.02       27.45       
C           67.08       12.5        26.82       
C           66.46       15.0        27.61       
C           67.84       14.7        27.45       
C           66.26       16.34       28.05       
C           68.1        13.36       27.04       
C           69.49       12.87       26.72       
N           70.46       13.89       26.91       
C           70.24       15.21       27.3        
C           64.92       16.8        28.19       
N           63.87       15.84       28.1        
C           64.0        14.5        27.74       
O           64.61       18.01       28.31       
O           62.97       13.82       27.78       
O           69.88       11.8        26.22       
O           71.24       15.91       27.47       
C           71.84       13.58       26.57       
C           62.49       16.19       28.56       
H           72.56       13.78       27.32       
H           72.07       12.55       26.34       
H           72.12132    14.09936    25.65391    
H           61.83       15.71       27.86       
H           62.33       17.27       28.43       
H           62.23452    15.83962    29.56003    
H           67.39       11.47       26.59       
H           66.95       18.3        28.32       
C           67.25       17.29       28.17       
C           68.86       15.72       27.62       
C           68.62       16.98       28.1        
C           64.11       9.13        26.62       
C           63.47       10.0        25.9        
S           65.36       10.02       27.53       
H           63.6        12.15       25.43       
H           62.68       9.66        25.2        
C           63.9        11.36       26.08       
C           64.97       11.53       26.87       
C           64.43       5.21        27.54       
C           63.7        5.32        26.36       
S           64.85       6.75        28.0        
H           63.1        6.99        24.96       
H           63.47       4.48        25.76       
C           63.52       6.66        25.91       
C           64.03       7.63        26.71       
C           65.27       2.62        30.26       
C           65.99       2.22        29.2        
S           64.35       4.05        30.0        
H           66.38       2.91        27.16       
H           66.77       1.49        29.19       
C           65.78       3.04        28.06       
C           64.91       4.06        28.32       
C           65.91       -1.2        35.56       
C           64.8        -0.66       34.95       
C           67.17       -0.68       35.19       
C           64.99       0.13        33.83       
C           66.26       0.57        33.4        
C           63.9        0.63        33.18       
C           67.4        0.0         34.03       
C           68.86       0.36        33.74       
N           68.99       1.26        32.66       
C           67.89       1.84        32.03       
C           62.56       0.42        33.54       
N           62.34       -0.41       34.6        
C           63.41       -0.98       35.37       
O           61.62       0.81        32.85       
O           63.12       -1.75       36.21       
O           69.72       0.27        34.55       
O           68.12       2.54        31.05       
C           70.34       1.93        32.4        
C           61.03       -1.03       34.67       
H           70.76       2.19        33.43       
H           70.35       2.79        31.76       
H           70.97817    1.21383     31.88237    
H           61.14       -2.03       34.98       
H           60.62       -1.13       33.65       
H           60.26244    -0.48276    35.21724    
H           68.08       -1.0        35.69       
H           63.2        1.77        31.54       
C           64.08       1.5         32.1        
C           66.43       1.46        32.34       
C           65.3        1.91        31.61       
C           66.44       -3.75       38.56       
C           65.77       -2.67       39.0        
S           66.74       -3.53       36.85       
H           64.9        -0.76       38.31       
H           65.44       -2.58       40.01       
C           65.46       -1.67       38.05       
C           66.01       -1.94       36.78       
C           67.85       -7.19       40.01       
C           68.26       -6.13       40.8        
S           66.77       -6.54       38.79       
H           68.11       -3.87       40.75       
H           68.95       -6.26       41.58       
C           67.81       -4.84       40.34       
C           67.01       -4.93       39.26       
C           68.54       -11.09      39.85       
C           69.77       -10.4       39.94       
S           67.32       -9.95       39.7        
H           70.46       -8.32       40.14       
H           70.69       -10.87      40.12       
C           69.66       -8.97       40.0        
C           68.36       -8.54       39.87       
C           67.55       -17.67      39.66       
C           68.5        -16.86      39.02       
C           66.74       -17.12      40.7        
C           68.51       -15.5       39.32       
C           67.63       -14.87      40.28       
C           69.26       -14.53      38.57       
C           66.84       -15.76      41.0        
C           65.88       -15.21      42.05       
N           65.83       -13.83      42.25       
C           66.62       -12.93      41.55       
C           70.31       -14.97      37.57       
N           70.26       -16.36      37.29       
C           69.39       -17.31      37.92       
O           71.01       -14.15      36.99       
O           69.57       -18.5       37.57       
O           65.21       -16.06      42.63       
O           66.61       -11.78      41.92       
C           64.69       -13.37      43.04       
C           71.34       -17.0       36.53       
H           63.9        -14.01      42.76       
H           64.43       -12.37      42.67       
H           64.87576    -13.44145   44.11168    
H           71.77       -17.85      37.08       
H           72.17       -16.25      36.46       
H           70.97147    -17.34642   35.56445    
H           65.91       -17.72      41.08       
H           69.76       -12.47      38.16       
C           69.14       -13.18      38.81       
C           67.53       -13.43      40.45       
C           68.42       -12.62      39.79       
C           65.87       -20.64      37.79       
C           65.87       -20.94      39.1        
S           66.56       -19.1       37.48       
H           66.53       -19.96      40.99       
H           65.69       -21.95      39.46       
C           66.5        -19.94      39.9        
C           66.98       -18.92      39.13       
C           64.53       -21.93      34.35       
C           64.82       -22.98      35.14       
S           64.89       -20.52      35.28       
H           65.66       -23.58      37.08       
H           64.72       -23.95      34.75       
C           65.42       -22.74      36.38       
C           65.49       -21.39      36.69       
C           62.77       -22.52      31.02       
C           63.3        -21.27      30.97       
S           63.22       -23.33      32.5        
H           64.2        -19.84      32.52       
H           63.12       -20.59      30.14       
C           63.74       -20.82      32.25       
C           63.95       -21.9       33.05       
C           60.28       -25.97      25.97       
C           61.16       -24.94      26.05       
C           59.53       -26.25      27.07       
C           61.43       -24.28      27.3        
C           60.66       -24.51      28.45       
C           62.42       -23.31      27.39       
C           59.63       -25.49      28.26       
C           58.74       -25.85      29.33       
N           58.92       -25.17      30.54       
C           60.04       -24.37      30.83       
C           63.15       -22.72      26.26       
N           62.68       -23.26      25.06       
C           61.83       -24.36      24.84       
O           63.97       -21.82      26.34       
O           61.64       -24.74      23.67       
O           57.92       -26.81      29.07       
O           60.08       -23.82      31.93       
C           58.44       -25.92      31.74       
C           62.86       -22.37      23.9        
H           59.04       -25.76      32.68       
H           58.64       -27.01      31.64       
H           57.40737    -25.69521   32.00694    
H           63.21       -22.99      23.07       
H           63.61       -21.61      24.12       
H           62.00533    -21.71849   23.71786    
H           58.85       -27.12      27.08       
H           63.47       -22.07      28.71       
C           62.68       -22.82      28.66       
C           60.98       -23.97      29.73       
C           62.06       -23.16      29.84       
C           60.64       -28.91      23.46       
C           59.27       -28.71      23.62       
S           61.52       -27.81      24.48       
H           58.02       -27.18      24.69       
H           58.56       -29.43      23.11       
C           58.98       -27.53      24.36       
C           60.1        -26.98      24.92       
C           62.98       -31.81      22.49       
C           61.77       -32.18      21.93       
S           62.96       -30.26      23.27       
H           59.81       -31.17      21.8        
H           61.58       -33.15      21.41       
C           60.84       -31.1       22.1        
C           61.31       -30.0       22.83       
C           66.52       -33.42      22.74       
C           65.58       -34.39      22.58       
S           65.7        -31.89      22.83       
H           63.42       -34.66      22.18       
H           65.83       -35.46      22.56       
C           64.25       -33.93      22.38       
C           64.13       -32.63      22.57       
C           73.05       -34.35      23.4        
C           72.27       -33.54      22.55       
C           72.36       -35.06      24.39       
C           70.88       -33.46      22.7        
C           70.17       -34.32      23.62       
C           70.04       -32.76      21.81       
C           70.96       -35.13      24.46       
C           70.37       -36.02      25.45       
N           68.98       -36.06      25.58       
C           68.12       -35.35      24.65       
C           70.62       -31.96      20.74       
N           72.04       -31.97      20.75       
C           72.91       -32.71      21.55       
O           69.96       -31.4       19.96       
O           74.08       -32.59      21.31       
O           71.1        -36.67      26.19       
O           66.92       -35.54      24.85       
C           68.23       -36.92      26.49       
C           72.6        -31.43      19.5        
H           68.2        -37.93      26.05       
H           67.17       -36.68      26.62       
H           68.70482    -36.83621   27.46756    
H           73.62       -31.09      19.61       
H           72.02       -30.54      19.28       
H           72.55933    -32.11457   18.65276    
H           72.91       -35.79      25.06       
H           68.17       -32.52      20.9        
C           68.67       -32.92      21.78       
C           68.75       -34.49      23.66       
C           67.96       -33.64      22.78       
C           77.07       -34.4       23.62       
C           76.62       -35.6       23.15       
S           75.72       -33.39      23.88       
H           74.63       -36.58      22.6        
H           77.26       -36.42      22.91       
C           75.18       -35.69      23.04       
C           74.56       -34.57      23.44       
C           80.3        -32.46      23.88       
C           80.7        -33.79      23.75       
S           78.61       -32.27      24.15       
H           79.71       -35.8       23.46       
H           81.72       -34.11      23.69       
C           79.57       -34.69      23.59       
C           78.43       -33.96      23.78       
C           82.96       -29.67      23.36       
C           81.92       -29.14      24.08       
S           82.65       -31.34      23.03       
H           80.13       -29.81      25.16       
H           81.96       -28.18      24.47       
C           80.94       -30.08      24.45       
C           81.22       -31.32      24.02       
C           88.14       -25.66      22.4        
C           88.0        -27.02      22.75       
C           86.94       -24.95      22.23       
C           86.72       -27.58      22.79       
C           85.49       -26.88      22.44       
C           86.54       -28.9       23.3        
C           85.7        -25.54      22.17       
C           84.54       -24.62      21.77       
N           83.28       -25.21      21.69       
C           83.04       -26.58      22.02       
C           87.71       -29.69      23.85       
N           88.94       -29.16      23.6        
C           89.16       -27.86      23.22       
O           87.54       -30.78      24.38       
O           90.27       -27.37      23.37       
O           84.67       -23.41      21.63       
O           81.94       -27.06      21.68       
C           82.06       -24.35      21.68       
C           90.02       -30.09      23.11       
H           82.18       -23.47      22.42       
H           81.16       -24.9       21.94       
H           81.81349    -23.99473   20.67944    
H           90.64       -29.65      22.36       
H           89.52       -30.9       22.6        
H           90.7391     -30.43843   23.85134    
H           87.01       -23.88      22.06       
H           85.17       -30.38      23.86       
C           85.29       -29.4       23.42       
C           84.19       -27.46      22.57       
C           84.1        -28.82      23.03       
C           91.07       -23.12      22.27       
C           90.71       -23.49      21.05       
S           90.0        -23.76      23.46       
H           89.31       -24.94      20.11       
H           91.25       -23.02      20.22       
C           89.65       -24.46      21.02       
C           89.26       -24.8       22.27       
C           94.18       -20.85      22.38       
C           93.71       -20.84      23.68       
S           93.09       -21.72      21.33       
H           92.26       -22.21      24.72       
H           94.1        -20.28      24.56       
C           92.71       -21.93      23.81       
C           92.17       -22.33      22.63       
C           96.9        -19.41      19.9        
C           97.17       -18.87      21.16       
S           95.58       -20.56      20.06       
H           96.53       -19.07      23.32       
H           97.97       -18.24      21.37       
C           96.35       -19.34      22.27       
C           95.32       -20.15      21.73       
C           100.9       -17.95      14.75       
C           99.5        -18.12      14.89       
C           101.61      -17.85      15.98       
C           98.95       -18.52      16.17       
C           99.77       -18.67      17.31       
C           97.54       -18.67      16.33       
C           101.12      -18.36      17.18       
C           102.12      -18.44      18.32       
N           101.54      -18.82      19.54       
C           100.21      -19.12      19.79       
C           96.51       -18.52      15.24       
N           97.11       -18.22      14.0        
C           98.46       -17.98      13.79       
O           95.36       -18.77      15.33       
O           98.81       -17.49      12.68       
O           103.27      -18.26      18.08       
O           99.93       -19.4       20.93       
C           102.52      -19.13      20.61       
C           96.23       -18.11      12.84       
H           103.26      -19.77      20.17       
H           102.0       -19.67      21.37       
H           102.97238   -18.2475    21.06238    
H           96.52       -17.29      12.23       
H           95.24       -17.99      13.09       
H           96.31548    -19.00751   12.22741    
H           102.58      -17.51      16.06       
H           95.98       -19.04      17.67       
C           97.06       -19.03      17.6        
C           99.21       -19.03      18.66       
C           97.81       -19.24      18.8        
C           103.4       -17.51      11.81       
C           102.69      -16.4       11.86       
S           102.74      -18.74      12.91       
H           101.08      -15.53      13.13       
H           102.73      -15.56      11.2        
C           101.72      -16.37      12.87       
C           101.76      -17.54      13.68       
C           106.67      -17.69      9.74        
C           106.21      -19.0       9.83        
S           105.56      -16.53      10.41       
H           104.53      -20.0       10.8        
H           106.71      -19.89      9.48        
C           105.04      -19.07      10.61       
C           104.58      -17.84      10.98       
C           109.75      -15.97      7.77        
C           109.72      -17.35      7.54        
S           108.49      -15.68      8.95        
H           108.56      -19.09      8.23        
H           110.54      -17.79      6.88        
C           108.64      -18.04      8.21        
C           107.84      -17.3       9.03        
C           113.98      -12.0       4.51        
C           113.14      -13.02      4.08        
C           114.11      -11.76      5.9         
C           112.44      -13.79      5.09        
C           112.55      -13.54      6.47        
C           111.56      -14.77      4.73        
C           113.44      -12.54      6.87        
C           113.71      -12.2       8.25        
N           112.92      -12.85      9.21        
C           111.92      -13.81      8.84        
C           111.16      -15.08      3.3         
N           111.94      -14.33      2.37        
C           112.89      -13.34      2.69        
O           110.34      -15.91      2.95        
O           113.32      -12.65      1.76        
O           114.59      -11.4       8.52        
O           111.36      -14.41      9.69        
C           113.04      -12.56      10.66       
C           111.57      -14.58      0.99        
H           112.13      -12.85      11.2        
H           113.09      -11.49      10.74       
H           113.8909    -13.06217   11.12032    
H           111.83      -13.78      0.35        
H           110.5       -14.69      0.85        
H           112.05235   -15.46667   0.57859     
H           114.73      -10.92      6.28        
H           110.0       -15.96      5.28        
C           110.68      -15.29      5.68        
C           111.71      -14.2       7.44        
C           110.79      -15.14      7.06        
C           116.33      -9.45       2.56        
C           116.63      -10.67      2.1         
S           115.0       -9.46       3.61        
H           115.96      -12.75      2.54        
H           117.4       -10.84      1.37        
C           115.84      -11.68      2.82        
C           114.94      -11.18      3.71        
C           117.61      -5.75       2.17        
C           118.56      -6.62       1.75        
S           116.18      -6.63       2.51        
H           118.92      -8.77       1.82        
H           119.57      -6.2        1.42        
C           118.27      -7.97       1.89        
C           117.0       -8.17       2.35        
C           117.72      -1.86       1.81        
C           118.76      -2.24       2.56        
S           116.78      -3.24       1.43        
H           119.55      -4.09       3.52        
H           119.49      -1.63       3.12        
C           118.79      -3.65       2.87        
C           117.77      -4.35       2.31        
C           116.63      4.64        0.43        
C           116.85      3.84        1.6         
C           116.56      3.9         -0.8        
C           116.99      2.41        1.54        
C           117.08      1.76        0.31        
C           117.0       1.65        2.73        
C           116.8       2.51        -0.84       
C           116.84      1.93        -2.18       
N           116.98      0.52        -2.19       
C           117.23      -0.27       -1.09       
C           117.07      2.34        4.04        
N           116.8       3.73        4.1         
C           116.6       4.48        2.95        
O           117.37      1.65        5.05        
O           116.36      5.68        3.05        
O           116.92      2.52        -3.2        
O           117.46      -1.45       -1.18       
C           117.18      -0.1        -3.56       
C           116.84      4.39        5.36        
H           117.5       -1.12       -3.5        
H           117.99      0.34        -4.13       
H           116.2178    -0.31772    -4.02354    
H           117.13      5.43        5.27        
H           117.62      4.04        6.03        
H           115.8979    4.34221     5.90614     
H           116.35      4.48        -1.7        
H           117.38      -0.21       3.63        
C           117.34      0.33        2.68        
C           117.24      0.32        0.28        
C           117.53      -0.43       1.49        
C           116.08      8.54        0.18        
C           114.92      7.98        0.36        
S           117.44      7.4         0.07        
H           114.2       5.95        0.66        
H           114.02      8.53        0.42        
C           115.06      6.58        0.48        
C           116.29      6.07        0.29        
C           116.06      12.28       -0.8        
C           117.33      12.04       -0.35       
S           115.05      10.87       -0.63       
H           118.39      10.31       0.44        
H           118.12      12.8        -0.43       
C           117.48      10.72       0.06        
C           116.35      9.95        -0.07       
C           113.87      15.14       -2.07       
C           115.12      15.69       -1.86       
S           113.83      13.51       -1.5        
H           117.03      15.0        -1.11       
H           115.35      16.78       -1.96       
C           116.04      14.73       -1.42       
C           115.48      13.55       -1.18       
C           108.68      17.42       -5.52       
C           110.05      17.71       -5.6        
C           108.16      16.8        -4.36       
C           110.89      17.14       -4.56       
C           110.41      16.44       -3.45       
C           112.28      17.29       -4.63       
C           109.01      16.33       -3.39       
C           108.32      15.78       -2.24       
N           109.18      15.18       -1.28       
C           110.56      15.16       -1.3        
C           112.9       18.01       -5.69       
N           112.07      18.66       -6.63       
C           110.67      18.46       -6.71       
O           114.12      18.26       -5.76       
O           110.12      18.98       -7.62       
O           107.07      15.78       -2.1        
O           111.11      14.59       -0.41       
C           108.44      14.52       -0.16       
C           112.66      19.14       -7.92       
H           107.83      15.28       0.34        
H           109.09      14.26       0.63        
H           107.8556    13.68213    -0.54021    
H           112.26      18.58       -8.77       
H           113.75      18.75       -7.92       
H           112.70182   20.22024    -8.05939    
H           107.1       16.59       -4.38       
H           114.26      16.9        -3.85       
C           113.14      16.71       -3.69       
C           111.24      15.85       -2.42       
C           112.7       15.94       -2.6        
C           106.31      17.24       -8.67       
C           105.53      17.75       -7.63       
S           107.97      17.0        -8.21       
H           105.87      17.83       -5.37       
H           104.49      17.84       -7.78       
C           106.31      17.8        -6.4        
C           107.67      17.57       -6.6        
C           104.78      16.54       -12.18      
C           106.05      16.06       -12.19      
S           104.4       17.22       -10.63      
H           107.7       15.74       -10.72      
H           106.52      15.58       -13.03      
C           106.74      16.22       -10.92      
C           105.96      16.81       -10.01      
H           70.16       21.6        28.67       
H           103.99      16.13       -12.9       
