512

C           76.52       10.28       25.16       
C           77.87       10.69       25.06       
S           75.68       10.86       23.72       
H           79.11       11.79       23.8        
H           78.52       10.51       25.86       
C           78.16       11.47       23.95       
C           77.15       11.46       23.08       
C           74.58       6.83        30.38       
C           74.75       6.47        29.02       
C           74.75       8.16        30.8        
C           75.27       7.39        28.17       
C           75.59       8.77        28.65       
C           75.43       7.14        26.84       
C           75.35       9.09        30.02       
C           75.71       10.42       30.64       
N           76.14       11.38       29.65       
C           76.25       11.16       28.26       
C           75.22       5.75        26.28       
N           74.71       4.82        27.15       
C           74.52       5.06        28.55       
O           75.55       5.45        25.16       
O           74.04       4.18        29.29       
O           75.63       10.69       31.85       
O           76.49       12.16       27.5        
C           76.67       12.68       30.2        
C           74.65       3.37        26.74       
H           76.56       13.41       29.4        
H           76.08       13.09       31.06       
H           77.72562    12.63202    30.46733    
H           75.18       2.72        27.42       
H           75.23       3.37        25.83       
H           73.6262     3.02873     26.58678    
H           74.52       8.53        31.8        
H           76.02       7.91        24.94       
C           75.86       8.16        25.97       
C           76.07       9.75        27.69       
C           76.04       9.51        26.33       
C           72.58       4.45        32.85       
C           73.93       4.34        33.06       
S           72.26       5.65        31.64       
H           75.76       5.13        32.21       
H           74.43       3.63        33.7        
C           74.7        5.25        32.29       
C           73.96       6.01        31.42       
C           69.68       2.13        33.96       
C           70.52       2.32        35.05       
S           70.16       3.15        32.63       
H           72.32       3.3         35.45       
H           70.47       1.68        35.9        
C           71.6        3.19        34.77       
C           71.56       3.73        33.52       
C           66.89       -0.59       34.13       
C           66.56       0.34        33.07       
S           68.17       0.09        35.06       
H           67.59       1.97        31.98       
H           65.71       0.19        32.42       
C           67.51       1.35        32.9        
C           68.51       1.23        33.82       
C           63.05       -5.66       35.74       
C           62.8        -4.35       35.69       
C           64.35       -6.14       35.46       
C           63.89       -3.5        35.27       
C           65.2        -3.93       34.98       
C           63.67       -2.1        35.11       
C           65.4        -5.32       35.14       
C           66.77       -5.9        34.92       
N           67.8        -4.99       34.54       
C           67.67       -3.59       34.41       
C           62.35       -1.43       35.37       
N           61.35       -2.26       35.81       
C           61.46       -3.65       35.94       
O           62.3        -0.19       35.34       
O           60.39       -4.22       36.2        
O           66.92       -7.15       35.0        
O           68.75       -2.92       34.29       
C           69.11       -5.56       34.67       
C           59.98       -1.69       35.95       
H           69.2        -6.12       35.58       
H           69.84       -4.82       34.84       
H           69.43017    -6.13631    33.80198    
H           59.34       -2.35       35.4        
H           59.98       -0.75       35.38       
H           59.68078    -1.64725    36.99725    
H           64.57       -7.13       35.6        
H           64.6        -0.19       34.78       
C           64.75       -1.27       34.76       
C           66.27       -3.04       34.65       
C           66.05       -1.72       34.55       
C           60.62       -8.16       37.66       
C           61.06       -8.76       36.51       
S           61.35       -6.64       37.8        
H           62.44       -8.24       34.86       
H           60.78       -9.79       36.31       
C           62.02       -7.94       35.77       
C           62.22       -6.74       36.35       
C           58.11       -9.8        40.17       
C           58.3        -8.5        40.55       
S           59.16       -10.19      38.85       
H           59.53       -6.78       39.89       
H           57.8        -8.02       41.36       
C           59.27       -7.82       39.75       
C           59.7        -8.56       38.74       
C           55.89       -12.94      40.38       
C           55.83       -12.34      41.63       
S           56.96       -12.03      39.39       
H           56.59       -10.45      42.57       
H           55.18       -12.7       42.39       
C           56.48       -11.04      41.67       
C           57.18       -10.82      40.53       
C           53.87       -19.16      39.75       
C           54.88       -18.64      40.57       
C           53.2        -18.39      38.85       
C           55.16       -17.24      40.45       
C           54.39       -16.43      39.5        
C           56.1        -16.54      41.28       
C           53.42       -17.07      38.73       
C           52.5        -16.33      37.83       
N           52.77       -14.96      37.71       
C           53.73       -14.24      38.47       
C           56.92       -17.25      42.29       
N           56.59       -18.63      42.45       
C           55.58       -19.35      41.73       
O           57.66       -16.65      43.0        
O           55.39       -20.48      41.91       
O           51.57       -16.82      37.26       
O           53.88       -13.02      38.24       
C           52.58       -14.38      36.39       
C           57.72       -19.41      42.98       
H           52.7        -15.16      35.62       
H           53.27       -13.63      36.15       
H           51.54724    -14.0473    36.28603    
H           57.37       -20.27      43.57       
H           58.18       -18.79      43.71       
H           58.39459    -19.71216   42.17892    
H           52.53       -18.82      38.14       
H           56.99       -14.7       41.7        
C           56.19       -15.18      41.13       
C           54.59       -15.03      39.38       
C           55.45       -14.34      40.22       
C           52.95       -23.0       39.77       
C           51.92       -22.35      40.4        
S           54.05       -21.85      39.06       
H           51.67       -20.28      41.18       
H           51.09       -22.93      40.79       
C           52.21       -20.95      40.56       
C           53.28       -20.53      39.84       
C           53.88       -26.71      39.32       
C           52.5        -26.65      39.32       
S           54.62       -25.14      39.5        
H           50.99       -25.06      39.64       
H           51.92       -27.53      39.18       
C           52.06       -25.32      39.47       
C           53.06       -24.39      39.52       
C           55.68       -29.91      37.73       
C           56.56       -28.93      37.91       
S           54.15       -29.33      38.28       
H           56.66       -26.91      38.75       
H           57.52       -28.91      37.47       
C           56.06       -27.78      38.63       
C           54.72       -27.81      38.85       
C           57.92       -35.24      34.49       
C           56.69       -34.56      34.42       
C           58.78       -34.92      35.48       
C           56.51       -33.42      35.29       
C           57.47       -33.08      36.27       
C           55.34       -32.67      35.23       
C           58.62       -33.9       36.33       
C           59.7        -33.67      37.32       
N           59.58       -32.52      38.1        
C           58.42       -31.71      38.08       
C           54.3        -32.91      34.23       
N           54.5        -33.98      33.35       
C           55.6        -34.8       33.41       
O           53.33       -32.08      34.1        
O           55.65       -35.64      32.51       
O           60.55       -34.53      37.47       
O           58.44       -30.79      38.92       
C           60.52       -32.49      39.3        
C           53.34       -34.35      32.5        
H           60.48       -33.49      39.8        
H           60.18       -31.79      40.11       
H           61.55468    -32.24399   39.06123    
H           53.65       -34.84      31.56       
H           52.89       -33.42      32.28       
H           52.62018    -34.95908   33.04679    
H           59.77       -35.4       35.48       
H           54.27       -31.06      36.02       
C           55.14       -31.61      36.09       
C           57.27       -31.96      37.12       
C           56.05       -31.23      37.12       
C           59.82       -37.59      32.03       
C           59.16       -38.39      32.93       
S           59.66       -35.89      32.4        
H           57.65       -38.13      34.51       
H           59.21       -39.51      32.87       
C           58.38       -37.63      33.83       
C           58.45       -36.25      33.59       
C           62.66       -38.07      29.32       
C           61.79       -39.06      29.09       
S           62.13       -37.0       30.53       
H           59.86       -39.73      30.01       
H           61.86       -39.79      28.34       
C           60.69       -39.06      30.05       
C           60.76       -38.01      30.97       
C           66.07       -36.36      28.26       
C           65.72       -37.33      27.31       
S           64.79       -36.33      29.47       
H           64.31       -38.94      26.89       
H           66.31       -37.59      26.45       
C           64.58       -38.16      27.63       
C           63.92       -37.64      28.71       
C           71.47       -32.84      27.16       
C           70.97       -33.4       28.31       
C           70.57       -32.62      26.09       
C           69.7        -34.06      28.25       
C           68.96       -34.06      27.05       
C           69.19       -34.79      29.37       
C           69.41       -33.26      25.96       
C           68.59       -32.98      24.77       
N           67.32       -33.63      24.68       
C           66.85       -34.37      25.8        
C           69.89       -35.06      30.63       
N           71.11       -34.41      30.64       
C           71.7        -33.63      29.58       
O           69.46       -35.65      31.56       
O           72.91       -33.44      29.72       
O           69.1        -32.28      23.92       
O           65.69       -34.8       25.73       
C           66.27       -33.14      23.78       
C           71.62       -34.06      31.98       
H           66.67       -32.14      23.48       
H           65.28       -33.0       24.21       
H           66.24087    -33.80996   22.9207     
H           72.66       -34.13      32.06       
H           71.39       -34.87      32.67       
H           71.35049    -33.09851   32.41704    
H           70.89       -31.96      25.29       
H           67.63       -36.08      30.08       
C           67.9        -35.39      29.26       
C           67.7        -34.68      26.99       
C           67.19       -35.43      28.03       
C           74.53       -30.37      26.34       
C           74.11       -30.08      27.59       
S           73.45       -31.57      25.66       
H           72.81       -31.09      29.04       
H           74.59       -29.45      28.34       
C           73.09       -30.98      28.03       
C           72.6        -31.82      27.06       
C           77.72       -28.68      24.88       
C           76.94       -29.05      23.8        
S           76.89       -29.09      26.35       
H           75.01       -30.16      23.53       
H           77.2        -28.92      22.75       
C           75.7        -29.69      24.21       
C           75.6        -29.84      25.56       
C           81.07       -26.72      24.19       
C           80.85       -26.76      25.52       
S           79.96       -27.85      23.45       
H           79.48       -27.59      27.01       
H           81.51       -26.25      26.21       
C           79.73       -27.51      25.99       
C           79.04       -28.03      24.87       
C           86.1        -23.15      21.96       
C           84.78       -23.36      21.6        
C           86.55       -23.96      22.99       
C           83.95       -24.26      22.25       
C           84.38       -24.93      23.38       
C           82.62       -24.37      21.94       
C           85.7        -24.8       23.67       
C           86.29       -25.59      24.81       
N           85.49       -26.53      25.47       
C           84.13       -26.72      25.16       
C           82.03       -23.59      20.82       
N           82.93       -22.83      20.08       
C           84.29       -22.68      20.37       
O           80.81       -23.68      20.59       
O           84.92       -21.8       19.77       
O           87.46       -25.4       25.14       
O           83.48       -27.57      25.76       
C           86.03       -27.09      26.65       
C           82.44       -21.94      19.01       
H           85.32       -27.47      27.3        
H           86.59       -26.32      27.22       
H           86.7294     -27.89756   26.43369    
H           82.94       -21.0       18.92       
H           81.41       -21.74      19.26       
H           82.55358    -22.37302   18.01617    
H           87.52       -23.81      23.38       
H           80.72       -25.36      22.19       
C           81.76       -25.25      22.58       
C           83.52       -25.84      24.08       
C           82.18       -26.07      23.63       
C           89.37       -22.12      20.05       
C           89.35       -21.54      21.33       
S           87.92       -23.07      19.87       
H           87.93       -21.42      23.07       
H           90.23       -20.94      21.65       
C           88.14       -21.8       22.06       
C           87.25       -22.51      21.35       
C           92.16       -21.81      17.29       
C           91.0        -22.27      16.74       
S           91.8        -21.43      18.9        
H           88.91       -22.65      17.34       
H           90.94       -22.61      15.66       
C           89.89       -22.36      17.63       
C           90.19       -22.0       18.89       
C           95.39       -21.15      15.23       
C           95.51       -20.56      16.46       
S           93.84       -21.92      15.12       
H           94.37       -20.36      18.36       
H           96.33       -19.9       16.64       
C           94.44       -20.79      17.39       
C           93.41       -21.41      16.73       
C           99.78       -20.18      10.41       
C           98.39       -20.05      10.48       
C           100.36      -20.95      11.45       
C           97.69       -20.38      11.65       
C           98.37       -20.95      12.76       
C           96.35       -20.07      11.85       
C           99.75       -21.32      12.61       
C           100.58      -21.97      13.65       
N           99.9        -22.18      14.85       
C           98.52       -21.96      15.01       
C           95.53       -19.63      10.74       
N           96.22       -19.34      9.53        
C           97.61       -19.53      9.36        
O           94.31       -19.42      10.89       
O           98.09       -19.18      8.3         
O           101.77      -22.28      13.51       
O           97.99       -22.38      16.06       
C           100.66      -21.96      16.11       
C           95.34       -19.25      8.31        
H           99.99       -21.86      17.01       
H           101.14      -20.98      16.03       
H           101.30411   -22.80074   16.36765    
H           95.75       -18.56      7.63        
H           94.42       -18.86      8.67        
H           95.24016    -20.24128   7.86785     
H           101.38      -21.28      11.33       
H           94.57       -19.98      13.07       
C           95.67       -20.3       13.05       
C           97.73       -21.16      14.01       
C           96.36       -20.92      14.14       
C           102.97      -19.47      8.12        
C           102.32      -18.31      8.4         
S           101.96      -20.77      8.67        
H           100.49      -17.63      9.44        
H           102.83      -17.36      8.19        
C           101.1       -18.44      9.14        
C           100.69      -19.72      9.34        
C           106.48      -19.44      6.44        
C           105.89      -20.53      5.99        
S           105.54      -18.61      7.67        
H           104.05      -21.64      6.35        
H           106.34      -21.16      5.21        
C           104.64      -20.81      6.62        
C           104.29      -19.79      7.49        
C           109.48      -17.95      4.51        
C           109.37      -17.33      5.71        
S           108.32      -19.22      4.47        
H           108.28      -17.46      7.61        
H           109.99      -16.51      6.05        
C           108.45      -17.84      6.61        
C           107.7       -18.73      6.01        
C           114.53      -16.54      0.57        
C           114.04      -17.75      1.21        
C           113.78      -15.4       0.86        
C           112.91      -17.66      1.99        
C           112.16      -16.49      2.21        
C           112.42      -18.83      2.65        
C           112.66      -15.35      1.61        
C           112.03      -14.04      1.72        
N           110.77      -14.07      2.25        
C           110.22      -15.14      2.95        
C           113.04      -20.15      2.51        
N           114.19      -20.14      1.76        
C           114.74      -19.04      1.07        
O           112.51      -21.14      3.03        
O           115.75      -19.28      0.45        
O           112.53      -13.1       1.32        
O           109.26      -15.07      3.75        
C           110.0       -12.85      2.46        
C           115.11      -21.27      2.02        
H           110.46      -12.23      3.18        
H           108.99      -13.17      2.79        
H           109.82193   -12.39113   1.48746     
H           115.77      -21.55      1.2         
H           114.47      -22.15      2.15        
H           115.69977   -21.27711   2.93663     
H           114.1       -14.42      0.51        
H           111.04      -19.66      4.0         
C           111.32      -18.78      3.46        
C           110.97      -16.46      2.93        
C           110.56      -17.62      3.57        
C           117.6       -15.63      -1.86       
C           118.13      -16.04      -0.69       
S           115.86      -15.71      -1.83       
H           117.4       -16.76      1.14        
H           119.23      -16.08      -0.56       
C           117.11      -16.44      0.26        
C           115.83      -16.26      -0.16       
C           118.82      -14.14      -5.24       
C           119.94      -14.23      -4.47       
S           117.46      -14.71      -4.42       
H           120.43      -14.91      -2.32       
H           120.93      -13.94      -4.77       
C           119.62      -14.77      -3.14       
C           118.33      -15.14      -3.01       
C           117.77      -11.72      -8.17       
C           119.04      -12.06      -8.48       
S           117.24      -12.57      -6.72       
H           120.66      -13.3       -7.6        
H           119.67      -11.65      -9.25       
C           119.65      -12.92      -7.49       
C           118.71      -13.39      -6.54       
C           115.92      -6.55       -11.99      
C           116.02      -6.74       -10.61      
C           116.27      -7.65       -12.79      
C           116.45      -8.02       -10.09      
C           116.73      -9.14       -10.9       
C           116.6       -8.28       -8.68       
C           116.56      -8.96       -12.31      
C           116.87      -10.0       -13.28      
N           117.35      -11.23      -12.78      
C           117.5       -11.46      -11.36      
C           116.47      -7.17       -7.67       
N           116.06      -5.96       -8.21       
C           115.65      -5.72       -9.52       
O           116.64      -7.31       -6.44       
O           115.24      -4.59       -9.82       
O           116.98      -9.65       -14.47      
O           117.97      -12.58      -11.01      
C           117.41      -12.41      -13.72      
C           115.88      -4.86       -7.25       
H           117.52      -13.31      -13.13      
H           118.35      -12.29      -14.28      
H           116.55108   -12.55558   -14.37511   
H           116.2       -3.91       -7.58       
H           116.51      -5.08       -6.34       
H           114.88179   -4.6867     -6.84794    
H           116.26      -7.43       -13.87      
H           117.3       -9.61       -7.17       
C           117.03      -9.48       -8.2        
C           117.12      -10.44      -10.39      
C           117.16      -10.66      -8.99       
C           115.08      -3.68       -14.71      
C           115.68      -3.1        -13.62      
S           114.91      -5.41       -14.4       
H           116.64      -3.76       -11.7       
H           115.88      -2.05       -13.54      
C           116.03      -4.04       -12.55      
C           115.77      -5.35       -12.86      
C           114.38      -1.5        -17.88      
C           113.81      -2.75       -18.06      
S           115.26      -1.46       -16.32      
H           113.8       -4.68       -16.89      
H           113.28      -2.99       -18.99      
C           114.03      -3.62       -16.94      
C           114.73      -3.05       -15.89      
C           115.27      2.05        -19.46      
C           115.06      1.13        -20.51      
S           114.93      1.23        -18.02      
H           114.42      -0.94       -20.78      
H           115.15      1.36        -21.6       
C           114.65      -0.18       -20.1       
C           114.56      -0.32       -18.71      
C           117.71      8.0         -20.71      
C           117.66      7.21        -19.59      
C           116.91      7.61        -21.82      
C           116.83      6.07        -19.6       
C           115.99      5.65        -20.64      
C           116.89      5.16        -18.49      
C           116.07      6.49        -21.79      
C           115.38      6.17        -23.01      
N           114.5       5.06        -22.9       
C           114.49      4.12        -21.85      
C           117.71      5.38        -17.28      
N           118.43      6.54        -17.28      
C           118.45      7.46        -18.33      
O           117.73      4.56        -16.33      
O           119.11      8.52        -18.19      
O           115.39      6.95        -23.99      
O           113.69      3.23        -21.88      
C           113.69      4.66        -24.04      
C           119.54      6.58        -16.33      
H           113.19      3.73        -23.97      
H           114.39      4.6         -24.9       
H           112.90165   5.36805     -24.29548   
H           120.43      6.9         -16.82      
H           119.74      5.65        -15.86      
H           119.42239   7.2926      -15.51362   
H           116.91      8.19        -22.78      
H           116.3       3.34        -17.66      
C           116.19      3.97        -18.48      
C           115.27      4.44        -20.62      
C           115.37      3.55        -19.55      
C           119.48      11.43       -20.92      
C           120.36      10.53       -21.37      
S           117.9       10.82       -20.79      
H           120.35      8.35        -21.56      
H           121.45      10.72       -21.57      
C           119.79      9.27        -21.35      
C           118.45      9.21        -21.05      
C           120.57      15.26       -21.29      
C           119.31      15.23       -20.77      
S           121.06      13.56       -21.56      
H           117.83      13.71       -20.14      
H           118.82      16.12       -20.54      
C           118.76      13.88       -20.6       
C           119.6       12.88       -20.99      
H           77.34       11.38       22.03       
H           121.38      15.94       -20.96      
