512

C           64.47       18.91       33.06       
C           64.68       19.32       31.77       
S           63.7        20.23       33.97       
H           64.6        21.26       30.67       
H           64.91       18.57       31.07       
C           64.56       20.75       31.62       
C           64.04       21.43       32.75       
C           64.8        12.41       34.37       
C           64.05       13.43       34.93       
C           65.81       12.79       33.39       
C           64.27       14.76       34.43       
C           65.27       15.1        33.47       
C           63.57       15.85       34.94       
C           65.99       14.06       32.95       
C           67.11       14.29       31.97       
N           67.39       15.61       31.67       
C           66.6        16.69       32.15       
C           62.46       15.65       35.94       
N           62.31       14.32       36.43       
C           63.01       13.21       35.96       
O           61.73       16.6        36.2        
O           62.79       12.08       36.52       
O           67.84       13.38       31.47       
O           67.05       17.77       31.97       
C           68.15       15.98       30.46       
C           61.06       13.96       37.21       
H           68.73       16.89       30.58       
H           68.81       15.17       30.02       
H           67.52775    16.18498    29.58885    
H           60.51       13.11       36.8        
H           60.42       14.84       37.11       
H           61.3013     13.79677    38.26035    
H           66.42       11.96       33.01       
H           63.03       17.89       34.83       
C           63.64       17.14       34.38       
C           65.45       16.5        33.04       
C           64.65       17.55       33.54       
C           65.96       8.91        35.64       
C           65.33       8.72        34.4        
S           65.74       10.55       36.18       
H           64.47       10.13       32.91       
H           65.2        7.79        33.94       
C           64.85       10.02       33.9        
C           64.96       11.05       34.76       
C           67.51       5.73        37.42       
C           67.61       6.78        38.29       
S           66.65       6.18        35.99       
H           67.47       8.99        38.01       
H           68.07       6.68        39.28       
C           67.18       8.03        37.64       
C           66.56       7.88        36.45       
C           68.45       2.11        38.54       
C           67.82       2.01        37.39       
S           68.61       3.74        39.02       
H           66.96       3.43        35.83       
H           67.79       1.0         36.89       
C           67.41       3.26        36.83       
C           67.83       4.32        37.6        
C           70.12       -2.78       42.57       
C           68.97       -2.5        41.84       
C           71.25       -1.93       42.5        
C           68.84       -1.35       41.11       
C           70.0        -0.6        40.83       
C           67.65       -0.99       40.44       
C           71.15       -0.94       41.59       
C           72.38       -0.11       41.46       
N           72.37       0.84        40.37       
C           71.25       1.2         39.58       
C           66.37       -1.71       40.66       
N           66.51       -2.93       41.32       
C           67.72       -3.37       41.91       
O           65.31       -1.32       40.08       
O           67.7        -4.51       42.34       
O           73.33       -0.32       42.25       
O           71.35       2.04        38.71       
C           73.7        1.43        40.05       
C           65.53       -3.95       40.83       
H           74.05       1.83        40.97       
H           73.54       2.26        39.34       
H           74.42507    0.75914     39.58921    
H           66.1        -4.83       40.46       
H           65.06       -3.56       39.93       
H           64.82877    -4.22471    41.61798    
H           72.17       -2.21       43.04       
H           66.74       0.2         38.94       
C           67.65       0.05        39.56       
C           69.98       0.49        39.87       
C           68.74       0.88        39.31       
C           70.69       -6.27       44.25       
C           70.49       -5.39       45.28       
S           70.78       -5.4        42.71       
H           69.91       -3.33       45.44       
H           70.54       -5.73       46.32       
C           70.28       -4.1        44.81       
C           70.46       -3.9        43.45       
C           70.77       -9.94       43.51       
C           71.7        -9.74       44.41       
S           69.73       -8.58       43.31       
H           72.53       -8.03       45.63       
H           72.46       -10.5       44.68       
C           71.78       -8.42       44.86       
C           70.86       -7.66       44.25       
C           68.54       -12.57      41.87       
C           69.33       -13.16      42.84       
S           68.85       -10.87      41.86       
H           71.08       -12.72      44.1        
H           69.2        -14.17      43.25       
C           70.4        -12.44      43.27       
C           70.27       -11.13      42.94       
C           62.71       -14.33      39.16       
C           63.25       -14.55      40.45       
C           63.61       -13.71      38.27       
C           64.6        -14.1       40.74       
C           65.43       -13.42      39.81       
C           65.17       -14.37      41.98       
C           64.87       -13.24      38.55       
C           65.58       -12.56      37.42       
N           66.87       -12.12      37.65       
C           67.49       -12.38      38.92       
C           64.45       -15.0       43.08       
N           63.1        -15.41      42.77       
C           62.42       -15.23      41.52       
O           65.02       -15.35      44.17       
O           61.29       -15.68      41.44       
O           64.99       -12.46      36.33       
O           68.58       -11.94      39.09       
C           67.72       -11.65      36.53       
C           62.37       -16.19      43.82       
H           67.56       -12.26      35.72       
H           68.76       -11.57      36.81       
H           67.38374    -10.69025   36.13769    
H           61.35       -15.9       43.69       
H           62.76       -15.89      44.81       
H           62.46253    -17.25762   43.62071    
H           63.3        -13.66      37.24       
H           66.73       -13.95      43.3        
C           66.48       -13.82      42.26       
C           66.71       -12.99      40.09       
C           67.28       -13.11      41.33       
C           59.76       -16.02      37.19       
C           59.86       -14.73      36.81       
S           61.06       -16.45      38.31       
H           60.89       -12.92      37.46       
H           59.34       -14.38      35.91       
C           60.75       -13.96      37.65       
C           61.52       -14.74      38.51       
C           58.31       -19.34      35.9        
C           57.52       -18.37      35.33       
S           59.51       -18.62      36.82       
H           57.61       -16.11      35.24       
H           56.66       -18.61      34.68       
C           57.95       -17.02      35.68       
C           58.98       -17.04      36.54       
C           58.89       -23.12      35.23       
C           57.56       -22.9       35.43       
S           59.73       -21.66      35.39       
H           56.11       -21.18      35.76       
H           56.8        -23.63      35.35       
C           57.17       -21.52      35.63       
C           58.28       -20.78      35.77       
C           60.13       -29.07      32.69       
C           60.44       -27.75      32.35       
C           59.42       -29.29      33.87       
C           59.98       -26.68      33.11       
C           59.23       -26.86      34.25       
C           60.33       -25.37      32.75       
C           58.91       -28.25      34.64       
C           58.11       -28.61      35.76       
N           57.77       -27.5       36.55       
C           58.19       -26.17      36.36       
C           61.12       -25.01      31.5        
N           61.52       -26.08      30.75       
C           61.35       -27.43      31.11       
O           61.4        -23.83      31.12       
O           61.9        -28.29      30.43       
O           57.83       -29.77      36.12       
O           57.76       -25.27      37.13       
C           57.17       -27.82      37.87       
C           62.07       -25.78      29.41       
H           57.29       -27.01      38.55       
H           57.77       -28.68      38.18       
H           56.12927    -28.11637   37.73905    
H           62.72       -26.54      29.11       
H           62.62       -24.85      29.45       
H           61.28779    -25.5772    28.67848    
H           59.2        -30.31      34.15       
H           60.17       -23.36      33.17       
C           59.9        -24.35      33.51       
C           58.87       -25.79      35.1        
C           59.28       -24.46      34.78       
C           61.47       -32.44      31.11       
C           60.09       -32.49      31.09       
S           62.08       -30.99      31.85       
H           58.52       -31.26      31.94       
H           59.58       -33.34      30.59       
C           59.55       -31.31      31.7        
C           60.48       -30.34      32.01       
C           64.49       -33.41      29.02       
C           63.48       -33.92      28.38       
S           63.98       -32.61      30.43       
H           61.13       -34.1       28.73       
H           63.47       -34.46      27.46       
C           62.18       -33.81      29.12       
C           62.37       -33.16      30.31       
C           68.03       -32.78      27.36       
C           68.21       -33.29      28.62       
S           66.29       -32.76      26.98       
H           66.92       -33.96      30.27       
H           69.11       -33.5       29.19       
C           66.97       -33.6       29.24       
C           65.86       -33.33      28.57       
C           72.84       -30.17      23.85       
C           72.49       -29.94      25.15       
C           72.15       -31.14      23.08       
C           71.44       -30.72      25.68       
C           70.65       -31.64      24.89       
C           70.93       -30.52      27.01       
C           71.06       -31.8       23.53       
C           70.29       -32.58      22.48       
N           69.2        -33.34      22.92       
C           68.81       -33.26      24.29       
C           71.52       -29.48      27.93       
N           72.65       -28.82      27.4        
C           73.13       -28.97      26.12       
O           71.07       -29.17      29.02       
O           74.19       -28.47      25.86       
O           70.71       -32.62      21.27       
O           67.84       -33.98      24.53       
C           68.78       -34.51      22.23       
C           73.57       -28.18      28.37       
H           68.23       -35.3       22.81       
H           69.73       -35.09      21.91       
H           68.13524    -34.26202   21.38686    
H           74.56       -28.56      28.13       
H           73.34       -28.52      29.32       
H           73.49653    -27.09258   28.38469    
H           72.48       -31.38      22.08       
H           69.43       -31.04      28.5        
C           69.82       -31.27      27.46       
C           69.52       -32.34      25.34       
C           69.13       -32.16      26.66       
C           74.97       -27.61      21.5        
C           75.41       -28.84      21.34       
S           73.68       -27.72      22.66       
H           75.12       -30.96      22.21       
H           76.27       -29.06      20.6        
C           74.8        -29.86      22.2        
C           73.84       -29.41      23.05       
C           76.52       -24.97      19.14       
C           75.51       -24.35      19.77       
S           76.64       -26.6       19.74       
H           74.16       -24.88      21.57       
H           75.35       -23.23      19.68       
C           74.94       -25.18      20.82       
C           75.31       -26.43      20.78       
C           79.41       -24.2       16.47       
C           78.77       -23.04      16.87       
S           78.81       -25.45      17.6        
H           76.93       -22.39      18.05       
H           78.96       -22.07      16.51       
C           77.62       -23.16      17.75       
C           77.54       -24.43      18.2        
C           83.18       -24.06      11.25       
C           82.43       -25.1       11.82       
C           83.5        -22.89      11.99       
C           81.8        -24.79      13.06       
C           82.03       -23.59      13.81       
C           81.03       -25.74      13.73       
C           82.93       -22.65      13.22       
C           83.23       -21.36      13.87       
N           82.63       -21.13      15.19       
C           81.66       -21.95      15.72       
C           80.95       -27.15      13.25       
N           81.53       -27.47      12.05       
C           82.23       -26.47      11.25       
O           80.33       -27.97      14.01       
O           82.81       -26.85      10.27       
O           83.91       -20.54      13.38       
O           81.4        -21.67      16.89       
C           82.79       -19.89      15.89       
C           81.86       -28.82      11.68       
H           81.95       -19.51      16.37       
H           83.02       -19.19      15.13       
H           83.63688    -19.911     16.5759     
H           81.89       -29.07      10.54       
H           81.01       -29.44      11.98       
H           82.72345    -29.23733   12.19807    
H           84.27       -22.27      11.62       
H           79.77       -26.28      15.37       
C           80.48       -25.52      15.0        
C           81.4        -23.3       15.09       
C           80.61       -24.3       15.66       
C           85.91       -24.11      8.43        
C           85.14       -23.0       8.21        
S           85.28       -25.12      9.69        
H           83.25       -22.21      9.03        
H           85.41       -22.19      7.53        
C           83.99       -23.03      9.01        
C           83.96       -24.04      9.96        
C           89.33       -25.66      7.16        
C           88.96       -24.78      6.25        
S           88.21       -25.82      8.46        
H           87.23       -23.52      5.96        
H           89.43       -24.6       5.29        
C           87.74       -24.14      6.65        
C           87.16       -24.56      7.82        
C           92.97       -27.05      7.49        
C           92.07       -27.98      8.04        
S           92.07       -25.76      6.79        
H           89.84       -28.08      8.45        
H           92.34       -28.91      8.43        
C           90.68       -27.57      8.01        
C           90.56       -26.4       7.26        
C           99.46       -27.69      8.02        
C           98.55       -27.56      6.9         
C           98.88       -27.64      9.3         
C           97.21       -27.39      7.19        
C           96.63       -27.4       8.5         
C           96.41       -27.02      6.07        
C           97.51       -27.52      9.54        
C           97.08       -27.48      10.96       
N           95.68       -27.4       11.15       
C           94.76       -27.37      10.12       
C           96.76       -26.94      4.65        
N           98.14       -27.17      4.45        
C           99.04       -27.46      5.46        
O           95.93       -26.69      3.72        
O           100.12      -27.68      5.13        
O           97.8        -27.54      11.96       
O           93.6        -27.16      10.37       
C           95.1        -27.68      12.51       
C           98.69       -26.9       3.11        
H           95.79       -28.23      13.18       
H           94.23       -28.28      12.34       
H           94.88973    -26.7408    13.02165    
H           99.64       -26.38      3.26        
H           98.11       -26.21      2.48        
H           98.78908    -27.7988    2.50136     
H           99.53       -27.8       10.16       
H           94.45       -26.84      5.44        
C           95.03       -26.87      6.32        
C           95.22       -27.18      8.73        
C           94.44       -27.04      7.59        
C           103.45      -27.7       8.3         
C           103.04      -28.87      7.67        
S           102.02      -26.91      8.88        
H           101.18      -29.9       7.2         
H           103.73      -29.63      7.21        
C           101.61      -29.04      7.61        
C           100.92      -27.98      8.04        
C           106.78      -25.91      9.46        
C           107.14      -27.04      8.76        
S           105.05      -25.79      9.61        
H           106.17      -28.72      7.73        
H           108.1       -27.29      8.39        
C           106.04      -27.78      8.33        
C           104.8       -27.28      8.69        
C           108.52      -22.48      8.95        
C           108.42      -22.69      10.31       
S           108.02      -23.88      8.09        
H           107.58      -24.07      11.66       
H           108.65      -21.92      11.02       
C           107.85      -23.93      10.63       
C           107.56      -24.72      9.58        
C           110.57      -17.01      5.91        
C           111.2       -17.85      6.85        
C           109.24      -17.38      5.54        
C           110.42      -18.9       7.51        
C           109.08      -19.19      7.14        
C           110.95      -19.82      8.43        
C           108.5       -18.43      6.13        
C           107.07      -18.52      5.71        
N           106.36      -19.54      6.37        
C           106.86      -20.42      7.34        
C           112.34      -19.7       8.95        
N           113.08      -18.61      8.38        
C           112.59      -17.69      7.38        
O           112.8       -20.57      9.67        
O           113.39      -16.84      7.01        
O           106.64      -17.74      4.89        
O           106.14      -21.18      7.84        
C           105.19      -19.95      5.56        
C           114.22      -18.08      9.22        
H           104.77      -20.92      5.85        
H           105.45      -20.02      4.52        
H           104.37475   -19.2574    5.76922     
H           115.06      -17.61      8.66        
H           114.69      -18.88      9.73        
H           113.84648   -17.42085   10.00365    
H           108.76      -16.79      4.75        
H           110.75      -21.5       9.57        
C           110.23      -20.89      8.83        
C           108.33      -20.29      7.65        
C           108.95      -21.21      8.41        
C           112.11      -14.09      3.77        
C           112.8       -15.24      3.5         
S           110.75      -14.43      4.85        
H           112.74      -17.32      4.36        
H           113.57      -15.38      2.76        
C           112.3       -16.35      4.28        
C           111.27      -16.06      5.11        
C           111.59      -10.46      2.71        
C           112.82      -10.82      2.17        
S           110.88      -11.69      3.63        
H           114.03      -12.8       2.26        
H           113.4       -10.07      1.72        
C           113.15      -12.2       2.52        
C           112.1       -12.82      3.14        
C           110.61      -6.7        2.1         
C           109.69      -7.3        2.9         
S           111.84      -7.86       1.81        
H           109.2       -9.22       3.76        
H           108.75      -6.83       3.23        
C           109.91      -8.66       3.21        
C           111.11      -9.1        2.71        
C           110.18      -1.45       -1.85       
C           109.39      -2.62       -1.7        
C           111.37      -1.39       -1.06       
C           109.65      -3.46       -0.6        
C           110.76      -3.28       0.3         
C           108.83      -4.62       -0.47       
C           111.66      -2.2        -0.02       
C           112.77      -1.77       0.91        
N           112.97      -2.72       1.97        
C           112.17      -3.86       2.28        
C           107.68      -4.99       -1.27       
N           107.34      -4.06       -2.22       
C           108.14      -2.89       -2.46       
O           107.02      -6.02       -0.91       
O           107.81      -2.06       -3.25       
O           113.37      -0.75       0.67        
O           112.44      -4.48       3.28        
C           114.35      -2.7        2.38        
C           106.02      -4.09       -2.87       
H           114.97      -2.53       1.49        
H           114.67      -3.74       2.75        
H           114.55978   -1.9694     3.16123     
H           105.59      -3.1        -2.88       
H           105.32      -4.68       -2.24       
H           106.06361   -4.59156    -3.83677    
H           112.03      -0.57       -1.19       
H           108.86      -6.52       0.46        
C           109.31      -5.57       0.45        
C           111.04      -4.21       1.31        
C           110.34      -5.44       1.39        
C           109.51      1.43        -4.51       
C           110.08      0.43        -5.15       
S           109.18      0.99        -2.88       
H           110.75      -1.58       -4.54       
H           110.37      0.48        -6.25       
C           110.38      -0.65       -4.23       
C           110.12      -0.44       -2.88       
C           107.4       4.38        -6.04       
C           107.33      3.32        -6.89       
S           108.57      4.07        -4.72       
H           108.09      1.34        -7.04       
H           106.81      3.33        -7.88       
C           108.15      2.25        -6.51       
C           108.72      2.41        -5.21       
C           106.28      8.16        -5.83       
C           105.38      7.5         -6.57       
S           107.41      7.02        -5.16       
H           104.96      5.37        -7.25       
H           104.57      8.07        -7.02       
C           105.61      6.1         -6.73       
C           106.76      5.71        -6.09       
C           105.78      14.71       -4.94       
C           106.9       13.84       -5.05       
C           104.48      14.19       -4.93       
C           106.63      12.45       -5.27       
C           105.29      11.9        -5.28       
C           107.61      11.52       -5.49       
C           104.32      12.85       -5.11       
C           102.87      12.41       -5.05       
N           102.64      11.05       -5.07       
C           103.66      10.09       -5.21       
C           109.06      11.93       -5.36       
N           109.31      13.31       -5.21       
C           108.32      14.36       -5.07       
O           109.95      11.21       -5.75       
O           108.68      15.54       -5.14       
O           102.0       13.19       -4.91       
O           103.3       8.9         -5.17       
C           101.25      10.63       -4.58       
C           110.59      13.83       -5.51       
H           100.92      11.27       -3.79       
H           101.24      9.65        -4.16       
H           100.51685   10.547      -5.38231    
H           110.5       14.63       -6.16       
H           111.12      13.12       -6.18       
H           111.15338   14.11873    -4.62268    
H           103.67      14.76       -4.75       
H           108.32      9.53        -5.93       
C           107.38      10.18       -5.78       
C           105.06      10.49       -5.36       
C           106.14      9.63        -5.59       
C           105.73      18.45       -3.68       
C           104.68      18.26       -4.53       
S           106.66      17.0        -3.53       
H           104.23      16.77       -6.09       
H           103.97      19.09       -4.85       
C           104.74      17.01       -5.22       
C           105.69      16.18       -4.73       
C           106.29      21.93       -2.0        
C           107.23      21.15       -1.54       
S           105.38      21.2        -3.34       
H           107.62      18.98       -1.58       
H           107.92      21.36       -0.74       
C           107.07      19.83       -2.06       
C           106.07      19.66       -2.9        
H           63.33       22.27       32.73       
H           105.81      22.63       -1.32       
