512

C           81.28       7.07        42.99       
C           81.79       7.41        44.21       
S           81.64       5.42        42.69       
H           83.03       6.44        45.83       
H           81.72       8.39        44.71       
C           82.51       6.39        44.87       
C           82.38       5.12        44.23       
C           77.08       10.95       39.62       
C           77.25       10.69       41.02       
C           77.92       10.32       38.73       
C           78.3        9.83        41.43       
C           79.19       9.25        40.51       
C           78.39       9.41        42.76       
C           78.99       9.55        39.13       
C           79.97       9.07        38.09       
N           81.12       8.35        38.54       
C           81.28       8.0         39.93       
C           77.4        9.88        43.76       
N           76.44       10.86       43.33       
C           76.25       11.23       42.0        
O           77.54       9.61        44.97       
O           75.46       12.14       41.75       
O           79.85       9.49        36.93       
O           82.32       7.43        40.27       
C           82.14       8.0         37.61       
C           75.58       11.57       44.29       
H           82.05       8.64        36.76       
H           83.07       8.19        38.06       
H           82.08901    6.98757     37.2094     
H           75.65       12.67       44.08       
H           76.06       11.46       45.27       
H           74.53551    11.26238    44.23992    
H           77.7        10.3        37.64       
H           79.52       8.32        44.27       
C           79.43       8.59        43.18       
C           80.22       8.4         40.96       
C           80.46       8.06        42.3        
C           73.54       11.69       37.96       
C           74.6        12.2        37.13       
S           74.26       10.88       39.25       
H           76.75       12.43       37.14       
H           74.42       12.74       36.25       
C           75.86       12.01       37.63       
C           75.87       11.41       38.87       
C           69.68       11.64       37.39       
C           70.05       12.98       37.45       
S           71.04       10.66       37.68       
H           72.02       14.06       37.67       
H           69.31       13.7        37.26       
C           71.47       13.13       37.66       
C           72.13       11.97       37.86       
C           66.53       9.42        36.65       
C           66.29       10.67       36.19       
S           68.09       9.28        37.28       
H           67.38       12.56       36.0        
H           65.37       11.03       35.75       
C           67.36       11.56       36.42       
C           68.43       11.03       37.03       
C           62.72       4.2         35.4        
C           63.63       4.92        34.65       
C           62.56       4.55        36.76       
C           64.35       5.92        35.31       
C           64.24       6.31        36.64       
C           65.12       6.78        34.5        
C           63.34       5.53        37.39       
C           63.08       5.71        38.85       
N           63.89       6.73        39.45       
C           64.66       7.68        38.65       
C           65.47       6.56        33.06       
N           64.83       5.36        32.55       
C           63.96       4.53        33.23       
O           66.12       7.35        32.34       
O           63.48       3.64        32.55       
O           62.28       5.08        39.47       
O           65.21       8.56        39.34       
C           63.5        6.95        40.85       
C           65.14       4.98        31.21       
H           62.38       6.74        40.99       
H           63.66       8.0         41.12       
H           64.06052    6.3618      41.5766     
H           65.32       3.9         30.99       
H           66.1        5.43        30.89       
H           64.40923    5.42698     30.53599    
H           61.83       4.03        37.3        
H           66.34       8.45        34.36       
C           65.72       7.88        35.02       
C           64.82       7.52        37.14       
C           65.54       8.32        36.31       
C           59.8        1.55        34.93       
C           59.78       2.38        33.85       
S           61.1        1.95        36.0        
H           60.91       4.13        33.19       
H           58.91       2.37        33.13       
C           60.78       3.37        33.93       
C           61.69       3.26        34.98       
C           57.34       -0.83       36.75       
C           56.71       -0.43       35.61       
S           59.0        -0.3        36.74       
H           57.24       0.99        33.92       
H           55.64       -0.47       35.48       
C           57.55       0.42        34.79       
C           58.81       0.59        35.27       
C           57.0        -3.66       39.41       
C           55.82       -2.9        39.46       
S           58.03       -3.09       38.17       
H           55.09       -1.09       38.56       
H           55.09       -3.04       40.22       
C           55.86       -1.79       38.63       
C           56.94       -1.79       37.81       
C           57.79       -9.3        42.63       
C           56.72       -8.89       41.85       
C           58.79       -8.45       43.01       
C           56.84       -7.58       41.36       
C           57.93       -6.69       41.7        
C           55.96       -7.09       40.35       
C           58.91       -7.2        42.56       
C           60.08       -6.45       43.05       
N           60.26       -5.15       42.5        
C           59.28       -4.61       41.65       
C           54.79       -7.84       39.84       
N           54.66       -9.16       40.36       
C           55.56       -9.72       41.31       
O           54.04       -7.35       39.09       
O           55.33       -10.91      41.63       
O           60.93       -7.01       43.81       
O           59.36       -3.45       41.29       
C           61.2        -4.13       43.1        
C           53.4        -9.88       40.07       
H           60.77       -3.77       44.01       
H           61.44       -3.45       42.23       
H           62.19784    -4.54754    43.23446    
H           53.69       -10.9       39.82       
H           53.05       -9.38       39.18       
H           52.64728    -9.8658     40.85823    
H           59.64       -8.89       43.4        
H           55.32       -5.43       39.17       
C           56.1        -5.76       39.87       
C           58.07       -5.39       41.13       
C           57.12       -4.86       40.27       
C           58.9        -13.11      43.18       
C           57.79       -12.9       43.94       
S           59.3        -11.66      42.34       
H           56.39       -11.17      44.47       
H           57.27       -13.66      44.42       
C           57.28       -11.52      43.86       
C           58.02       -10.7       43.01       
C           61.16       -16.05      42.18       
C           60.19       -16.61      42.95       
S           60.86       -14.43      41.77       
H           58.46       -15.9       44.11       
H           60.19       -17.61      43.29       
C           59.21       -15.65      43.34       
C           59.48       -14.38      42.85       
C           64.19       -18.33      40.91       
C           64.37       -17.04      40.54       
S           62.76       -18.36      41.91       
H           63.36       -14.99      40.69       
H           65.26       -16.71      39.95       
C           63.36       -16.1       40.88       
C           62.31       -16.71      41.62       
C           68.71       -22.74      39.1        
C           67.33       -22.7       38.93       
C           69.29       -21.6       39.66       
C           66.64       -21.64      39.49       
C           67.28       -20.42      40.01       
C           65.17       -21.65      39.48       
C           68.63       -20.49      40.15       
C           69.5        -19.49      40.79       
N           68.87       -18.33      41.17       
C           67.48       -18.23      41.07       
C           64.36       -22.74      38.93       
N           65.14       -23.77      38.36       
C           66.54       -23.85      38.3        
O           63.18       -22.68      39.03       
O           67.02       -24.92      37.9        
O           70.72       -19.59      40.69       
O           66.96       -17.25      41.48       
C           69.5        -17.4       42.09       
C           64.35       -24.99      38.01       
H           69.91       -17.92      42.94       
H           68.82       -16.67      42.51       
H           70.27083    -16.83426   41.56669    
H           64.9        -25.38      37.19       
H           63.37       -24.66      37.68       
H           64.1763     -25.6631    38.84956    
H           70.35       -21.61      39.75       
H           63.5        -20.59      39.99       
C           64.58       -20.54      40.03       
C           66.56       -19.31      40.56       
C           65.21       -19.37      40.6        
C           71.51       -25.47      38.3        
C           70.55       -25.95      39.18       
S           71.16       -23.79      37.93       
H           68.65       -25.27      40.11       
H           70.51       -27.01      39.58       
C           69.54       -25.0       39.51       
C           69.68       -23.8       38.88       
C           75.0        -26.96      37.76       
C           74.96       -25.8       37.09       
S           73.47       -27.47      38.33       
H           73.44       -24.36      36.45       
H           75.85       -25.29      36.67       
C           73.67       -25.25      37.0        
C           72.77       -25.96      37.75       
C           77.64       -29.12      39.78       
C           78.21       -28.04      39.15       
S           75.95       -29.0       39.31       
H           77.74       -26.42      37.61       
H           79.32       -27.87      39.1        
C           77.42       -27.25      38.22       
C           76.12       -27.64      38.26       
C           82.21       -33.14      42.58       
C           81.09       -32.5       43.08       
C           82.4        -33.02      41.22       
C           80.21       -31.81      42.21       
C           80.49       -31.64      40.82       
C           79.1        -31.1       42.64       
C           81.61       -32.27      40.34       
C           81.96       -32.3       38.89       
N           81.25       -31.51      37.97       
C           80.1        -30.86      38.46       
C           78.67       -31.08      44.0        
N           79.44       -31.89      44.87       
C           80.63       -32.6       44.47       
O           77.75       -30.44      44.34       
O           81.16       -33.27      45.34       
O           82.92       -33.02      38.42       
O           79.51       -30.22      37.63       
C           81.3        -31.75      36.5        
C           79.23       -31.8       46.3        
H           80.68       -31.07      35.97       
H           80.87       -32.69      36.23       
H           82.31478    -31.59496   36.13355    
H           79.1        -32.87      46.64       
H           78.24       -31.42      46.39       
H           79.91559    -31.12127   46.80734    
H           83.32       -33.51      40.87       
H           77.35       -29.95      42.18       
C           78.31       -30.35      41.79       
C           79.64       -30.91      39.87       
C           78.47       -30.26      40.37       
C           85.42       -34.32      44.57       
C           85.15       -35.27      43.62       
S           84.16       -33.19      44.69       
H           83.65       -35.47      41.96       
H           85.89       -36.05      43.41       
C           83.97       -34.97      42.85       
C           83.3        -33.87      43.3        
C           88.06       -33.41      47.25       
C           88.47       -34.59      46.72       
S           86.61       -32.83      46.48       
H           87.65       -35.97      45.11       
H           89.38       -35.03      46.98       
C           87.57       -35.05      45.7        
C           86.51       -34.23      45.48       
C           89.97       -32.0       50.35       
C           89.76       -31.0       49.49       
S           89.2        -33.41      49.69       
H           89.04       -30.7       47.34       
H           90.12       -30.05      49.6        
C           89.19       -31.33      48.17       
C           88.76       -32.63      48.23       
C           91.81       -30.55      56.65       
C           90.81       -30.12      55.78       
C           92.57       -31.64      56.16       
C           90.69       -30.58      54.42       
C           91.46       -31.63      53.92       
C           89.65       -30.19      53.55       
C           92.44       -32.11      54.87       
C           93.4        -33.15      54.53       
N           93.31       -33.62      53.25       
C           92.46       -33.18      52.32       
C           88.62       -29.26      53.98       
N           88.78       -28.74      55.28       
C           89.89       -29.05      56.12       
O           87.65       -28.94      53.32       
O           89.81       -28.68      57.27       
O           94.15       -33.61      55.33       
O           92.39       -33.69      51.22       
C           94.52       -34.34      52.79       
C           88.09       -27.44      55.52       
H           95.42       -33.81      53.15       
H           94.69       -34.23      51.7        
H           94.52       -35.36375   53.1642     
H           87.82       -27.33      56.55       
H           87.14       -27.36      54.94       
H           88.74996    -26.62774   55.2154     
H           93.36       -32.03      56.8        
H           88.71       -30.46      51.75       
C           89.53       -30.76      52.31       
C           91.44       -32.11      52.6        
C           90.46       -31.65      51.7        
C           93.2        -28.83      60.02       
C           92.88       -30.16      60.26       
S           92.91       -28.52      58.37       
H           92.05       -31.91      59.19       
H           93.13       -30.51      61.21       
C           92.31       -30.86      59.17       
C           92.16       -30.07      58.05       
C           95.56       -26.75      62.3        
C           94.65       -25.87      61.81       
S           95.19       -28.4       61.86       
H           92.88       -26.11      60.41       
H           94.61       -24.77      61.94       
C           93.69       -26.58      61.0        
C           93.9        -27.92      60.87       
C           98.45       -25.0       64.34       
C           98.88       -26.22      63.86       
S           96.83       -24.79      63.86       
H           98.24       -27.88      62.68       
H           99.91       -26.47      64.01       
C           97.95       -26.98      63.17       
C           96.72       -26.33      63.1        
C           102.48      -20.13      66.45       
C           101.74      -20.38      65.3        
C           102.41      -21.23      67.35       
C           100.95      -21.52      65.19       
C           100.9       -22.57      66.13       
C           100.16      -21.77      64.0        
C           101.66      -22.36      67.28       
C           101.51      -23.12      68.56       
N           100.72      -24.26      68.41       
C           100.03      -24.59      67.21       
C           100.0       -20.77      62.94       
N           100.8       -19.68      63.06       
C           101.7       -19.41      64.15       
O           99.3        -20.98      61.98       
O           102.25      -18.35      64.19       
O           102.14      -22.74      69.55       
O           99.33       -25.63      67.15       
C           101.12      -25.46      69.28       
C           101.04      -18.71      61.97       
H           102.06      -25.91      69.02       
H           100.38      -26.28      69.13       
H           101.10527   -25.20955   70.34073    
H           100.94      -17.72      62.35       
H           100.14      -18.81      61.33       
H           101.91867   -18.93494   61.36548    
H           103.07      -21.17      68.26       
H           98.78       -23.06      63.14       
C           99.44       -22.91      63.95       
C           100.08      -23.72      66.06       
C           99.32       -23.92      64.88       
C           106.01      -18.43      66.82       
C           105.29      -18.15      67.95       
S           105.09      -19.36      65.67       
H           103.2       -18.7       68.68       
H           105.63      -17.53      68.78       
C           103.94      -18.69      67.89       
C           103.67      -19.36      66.72       
C           109.36      -16.64      66.1        
C           109.56      -17.89      65.72       
S           107.77      -16.35      66.67       
H           108.29      -19.67      65.55       
H           110.46      -18.25      65.08       
C           108.45      -18.69      66.04       
C           107.41      -18.04      66.57       
C           111.45      -14.01      64.33       
C           111.16      -13.44      65.53       
S           110.79      -15.57      64.25       
H           110.07      -13.99      67.33       
H           111.3       -12.39      65.78       
C           110.39      -14.27      66.38       
C           110.17      -15.51      65.8        
C           114.38      -11.52      58.95       
C           113.11      -12.04      59.13       
C           115.28      -11.26      60.05       
C           112.72      -12.44      60.48       
C           113.61      -12.35      61.55       
C           111.39      -12.94      60.71       
C           114.9       -11.74      61.29       
C           115.91      -11.56      62.37       
N           115.61      -12.04      63.63       
C           114.35      -12.59      63.95       
C           110.39      -13.05      59.64       
N           110.81      -12.69      58.39       
C           112.08      -12.22      57.96       
O           109.24      -13.27      59.99       
O           112.39      -11.98      56.75       
O           117.03      -11.09      62.17       
O           114.17      -13.05      65.14       
C           116.6       -11.74      64.76       
C           109.74      -12.62      57.34       
H           116.1       -11.76      65.74       
H           117.01      -10.74      64.67       
H           117.38799   -12.49281   64.78111    
H           109.99      -11.8       56.68       
H           108.83      -12.28      57.76       
H           109.69096   -13.56586   56.80051    
H           116.24      -10.79      59.87       
H           110.01      -13.54      62.26       
C           111.08      -13.31      62.05       
C           113.29      -12.78      62.85       
C           112.01      -13.36      63.15       
C           115.08      -9.42       55.66       
C           116.06      -10.36      55.73       
S           114.14      -9.44       57.11       
H           116.59      -12.04      57.14       
H           116.85      -10.46      54.98       
C           115.94      -11.2       56.87       
C           114.89      -10.87      57.7        
C           113.87      -6.2        53.79       
C           115.01      -6.57       53.19       
S           113.41      -7.42       54.94       
H           116.59      -8.1        53.57       
H           115.53      -5.98       52.51       
C           115.65      -7.71       53.86       
C           114.88      -8.33       54.77       
C           112.03      -2.79       52.75       
C           111.39      -3.37       53.76       
S           113.43      -3.71       52.47       
H           111.62      -5.03       55.18       
H           110.54      -2.91       54.16       
C           111.99      -4.55       54.28       
C           113.04      -5.04       53.55       
C           109.17      2.61        50.23       
C           110.12      2.41        51.22       
C           108.61      1.46        49.6        
C           110.57      1.08        51.48       
C           110.13      -0.04       50.8        
C           111.53      0.89        52.5        
C           109.11      0.15        49.87       
C           108.66      -0.96       48.9        
N           109.35      -2.19       49.06       
C           110.31      -2.47       50.14       
C           112.04      1.94        53.37       
N           111.48      3.18        53.2        
C           110.69      3.58        52.12       
O           112.88      1.75        54.22       
O           110.31      4.72        52.18       
O           107.84      -0.68       48.05       
O           110.82      -3.59       50.19       
C           109.7       -2.92       47.81       
C           111.63      4.13        54.25       
H           110.55      -3.62       47.98       
H           109.94      -2.23       47.03       
H           108.83366   -3.49519    47.48335    
H           111.98      5.11        53.81       
H           112.47      3.9         54.89       
H           110.76214   4.24669     54.89907    
H           107.91      1.53        48.84       
H           112.6       -0.57       53.61       
C           111.92      -0.42       52.81       
C           110.63      -1.37       51.08       
C           111.53      -1.54       52.15       
C           107.16      5.45        48.16       
C           108.25      6.0         48.8        
S           107.05      3.8         48.74       
H           110.05      5.42        49.81       
H           108.55      6.96        48.67       
C           109.1       5.08        49.47       
C           108.67      3.77        49.5        
C           103.93      6.75        46.51       
C           104.76      7.81        46.54       
S           104.64      5.3         47.16       
H           106.75      8.12        47.45       
H           104.52      8.87        46.28       
C           105.99      7.42        47.19       
C           106.07      6.15        47.57       
C           100.49      6.68        44.69       
C           100.24      6.41        46.03       
S           102.19      6.94        44.37       
H           101.49      6.16        47.89       
H           99.3        6.11        46.46       
C           101.45      6.4         46.81       
C           102.57      6.75        46.02       
C           94.92       7.12        41.1        
C           96.04       6.3         41.08       
C           94.9        8.08        42.14       
C           97.16       6.58        41.93       
C           97.08       7.55        43.0        
C           98.28       5.78        41.87       
C           95.91       8.3         43.11       
C           95.59       9.06        44.29       
N           96.6        9.1         45.28       
C           97.88       8.57        45.0        
C           98.54       4.76        40.78       
N           97.48       4.54        39.97       
C           96.3        5.24        40.0        
O           99.6        4.12        40.75       
O           95.52       5.01        39.13       
O           94.5        9.59        44.48       
O           98.71       8.81        45.81       
C           96.29       9.68        46.64       
C           97.61       3.41        39.0        
H           95.79       10.63       46.57       
H           97.24       9.82        47.2        
H           95.73109    8.96345     47.2419     
H           96.58       3.09        38.71       
H           98.0        2.54        39.47       
H           98.23284    3.64357     38.13651    
H           93.99       8.74        42.2        
H           100.22      5.4         42.59       
C           99.31       5.96        42.77       
C           98.11       7.62        43.96       
C           99.28       6.89        43.8        
C           91.46       7.25        39.2        
C           91.72       5.94        39.67       
S           92.74       8.31        39.63       
H           93.43       4.92        40.71       
H           91.09       5.11        39.44       
C           92.94       5.83        40.43       
C           93.62       7.0         40.46       
C           88.14       7.77        37.14       
C           88.57       8.99        37.58       
S           89.31       6.55        37.58       
H           90.52       9.81        38.32       
H           88.05       9.92        37.23       
C           89.92       8.93        38.11       
C           90.32       7.65        38.43       
H           82.13       4.22        44.84       
H           87.33       7.59        36.45       
