512

C           77.5        19.86       31.27       
C           78.3        20.22       30.16       
S           77.82       20.97       32.57       
H           79.5        21.85       29.59       
H           78.34       19.66       29.23       
C           79.01       21.38       30.4        
C           78.82       21.98       31.57       
C           73.62       14.49       31.53       
C           73.41       15.86       31.74       
C           74.92       14.11       31.14       
C           74.44       16.84       31.64       
C           75.77       16.4        31.23       
C           74.28       18.24       31.75       
C           75.99       14.98       30.96       
C           77.25       14.42       30.41       
N           78.3        15.37       30.23       
C           78.17       16.77       30.58       
C           72.93       18.82       31.83       
N           71.91       17.79       31.99       
C           72.05       16.41       32.02       
O           72.75       20.05       31.9        
O           71.13       15.64       32.23       
O           77.39       13.21       30.18       
O           79.18       17.45       30.47       
C           79.56       14.94       29.71       
C           70.5        18.3        32.11       
H           80.45       15.46       30.06       
H           79.65       13.89       30.01       
H           79.42932    14.96904    28.62825    
H           69.86       17.5        31.72       
H           70.53       19.16       31.49       
H           70.24298    18.607      33.1238     
H           75.08       13.04       30.99       
H           75.08       20.16       31.62       
C           75.31       19.13       31.56       
C           76.85       17.33       31.1        
C           76.64       18.69       31.4        
C           71.13       11.64       30.73       
C           71.97       11.11       31.6        
S           71.38       13.32       30.38       
H           73.81       11.85       32.61       
H           71.9        10.08       31.94       
C           72.99       12.06       31.97       
C           72.69       13.33       31.52       
C           68.44       9.26        29.21       
C           68.68       10.29       28.28       
S           69.6        9.44        30.47       
H           69.72       12.21       28.14       
H           68.01       10.48       27.39       
C           69.61       11.31       28.66       
C           70.16       10.98       29.88       
C           66.03       6.11        29.61       
C           65.56       6.95        28.63       
S           67.47       6.82        30.37       
H           66.11       8.83        27.68       
H           64.61       6.68        28.11       
C           66.34       8.07        28.43       
C           67.4        8.22        29.24       
C           62.87       0.66        31.09       
C           62.9        1.88        31.7        
C           63.59       0.49        29.88       
C           63.61       2.91        31.01       
C           64.32       2.69        29.78       
C           63.68       4.15        31.59       
C           64.31       1.4         29.21       
C           65.13       1.06        28.01       
N           65.85       2.12        27.42       
C           65.86       3.44        27.96       
C           62.94       4.54        32.83       
N           62.22       3.5         33.45       
C           62.16       2.19        32.99       
O           63.0        5.69        33.29       
O           61.5        1.3         33.62       
O           65.19       -0.11       27.61       
O           66.58       4.26        27.36       
C           66.11       2.02        25.96       
C           61.34       3.82        34.6        
H           66.27       2.97        25.6        
H           65.22       1.7         25.46       
H           66.98894    1.39419     25.80531    
H           60.51       3.23        34.42       
H           61.06       4.83        34.45       
H           61.75356    3.59896     35.58398    
H           63.56       -0.48       29.41       
H           64.6        6.02        31.55       
C           64.51       5.07        31.08       
C           65.17       3.69        29.26       
C           65.32       4.85        29.98       
C           61.97       -2.94       32.48       
C           61.37       -2.71       31.3        
S           62.8        -1.49       33.02       
H           61.23       -1.13       29.83       
H           60.94       -3.47       30.74       
C           61.64       -1.42       30.74       
C           62.35       -0.62       31.57       
C           61.36       -6.47       34.13       
C           61.83       -5.64       35.08       
S           61.37       -5.59       32.58       
H           62.45       -3.52       35.22       
H           62.04       -5.98       36.12       
C           62.1        -4.29       34.61       
C           61.87       -4.1        33.27       
C           60.76       -10.37      34.44       
C           59.92       -9.76       35.22       
S           61.53       -9.19       33.37       
H           59.5        -7.72       35.93       
H           59.19       -10.26      35.87       
C           60.06       -8.33       35.22       
C           60.87       -7.83       34.26       
C           61.33       -16.88      33.15       
C           62.25       -15.83      33.26       
C           60.01       -16.63      33.51       
C           61.78       -14.54      33.71       
C           60.46       -14.26      33.97       
C           62.67       -13.44      33.73       
C           59.59       -15.36      33.93       
C           58.15       -15.26      34.29       
N           57.65       -13.98      34.57       
C           58.52       -12.83      34.48       
C           64.09       -13.49      33.4        
N           64.47       -14.73      32.92       
C           63.69       -15.9       32.81       
O           64.77       -12.54      33.5        
O           64.14       -16.98      32.4        
O           57.43       -16.29      34.1        
O           57.96       -11.78      34.57       
C           56.2        -13.75      34.75       
C           65.93       -15.06      32.82       
H           55.74       -13.82      33.83       
H           56.02       -12.8       35.19       
H           55.76764    -14.41296   35.49943    
H           66.11       -15.97      33.4        
H           66.45       -14.29      33.38       
H           66.28897    -15.11631   31.79235    
H           59.32       -17.41      33.38       
H           62.82       -11.35      34.0        
C           62.16       -12.21      34.03       
C           59.96       -12.96      34.25       
C           60.83       -11.86      34.33       
C           61.58       -20.62      31.88       
C           61.29       -19.88      30.79       
S           61.81       -19.7       33.33       
H           60.79       -17.83      30.42       
H           61.11       -20.26      29.83       
C           61.13       -18.49      31.11       
C           61.48       -18.25      32.45       
C           61.49       -24.46      31.49       
C           61.51       -24.13      32.81       
S           61.6        -23.03      30.49       
H           61.64       -22.37      34.1        
H           61.54       -24.88      33.56       
C           61.66       -22.76      33.07       
C           61.52       -22.06      31.93       
C           61.12       -27.7       29.34       
C           60.86       -27.93      30.65       
S           61.65       -26.05      29.19       
H           60.76       -26.76      32.5        
H           60.59       -28.95      30.96       
C           61.0        -26.79      31.49       
C           61.32       -25.7       30.8        
C           60.53       -33.12      25.65       
C           59.77       -31.9       25.73       
C           61.74       -33.14      26.38       
C           60.22       -30.82      26.54       
C           61.4        -30.96      27.31       
C           59.53       -29.59      26.6        
C           62.16       -32.14      27.2        
C           63.45       -32.37      27.87       
N           63.85       -31.41      28.75       
C           63.08       -30.24      29.02       
C           58.47       -29.31      25.67       
N           58.05       -30.38      24.82       
C           58.59       -31.64      24.81       
O           57.95       -28.26      25.58       
O           58.2        -32.49      24.01       
O           64.17       -33.38      27.65       
O           63.37       -29.59      30.03       
C           65.33       -31.24      28.95       
C           56.84       -30.16      24.01       
H           65.57       -30.15      28.8        
H           65.87       -31.83      28.22       
H           65.62867    -31.54579   29.95269    
H           56.84       -30.93      23.22       
H           56.97       -29.15      23.59       
H           55.92879    -30.13813   24.60776    
H           62.31       -34.05      26.33       
H           59.38       -27.71      27.4        
C           59.96       -28.66      27.48       
C           61.86       -29.96      28.25       
C           61.05       -28.83      28.37       
C           60.77       -36.39      23.47       
C           60.14       -36.72      24.66       
S           61.09       -34.72      23.38       
H           59.67       -35.6       26.51       
H           59.97       -37.73      24.93       
C           60.02       -35.59      25.46       
C           60.42       -34.4       24.92       
C           62.51       -38.43      20.47       
C           62.26       -39.3       21.56       
S           61.67       -36.86      20.76       
H           61.47       -39.11      23.56       
H           62.68       -40.3       21.65       
C           61.49       -38.65      22.61       
C           61.3        -37.31      22.45       
C           64.83       -39.48      17.41       
C           63.82       -38.62      17.02       
S           64.62       -39.78      19.1        
H           62.27       -37.45      17.84       
H           63.65       -38.44      15.98       
C           62.97       -38.19      18.04       
C           63.26       -38.66      19.26       
C           69.18       -41.7       12.9        
C           68.65       -40.4       13.17       
C           68.69       -42.77      13.64       
C           67.75       -40.25      14.26       
C           67.18       -41.38      14.97       
C           67.25       -38.96      14.66       
C           67.71       -42.64      14.57       
C           67.27       -43.9       15.16       
N           66.32       -43.79      16.28       
C           65.78       -42.55      16.63       
C           67.58       -37.65      13.97       
N           68.42       -37.83      12.85       
C           68.87       -39.14      12.38       
O           67.14       -36.56      14.25       
O           69.57       -39.23      11.35       
O           67.79       -44.97      14.98       
O           65.03       -42.49      17.63       
C           65.59       -45.05      16.7        
C           69.24       -36.67      12.38       
H           65.43       -45.52      15.77       
H           64.67       -44.76      17.17       
H           66.21079    -45.63428   17.37922    
H           70.21       -37.1       12.1        
H           69.28       -35.97      13.22       
H           68.77905    -36.31542   11.4581     
H           69.01       -43.75      13.36       
H           65.98       -37.88      15.92       
C           66.33       -38.82      15.65       
C           66.31       -41.24      16.05       
C           65.83       -39.96      16.37       
C           72.34       -42.69      10.71       
C           71.31       -43.54      10.48       
S           71.83       -41.44      11.82       
H           69.15       -43.74      10.9        
H           71.43       -44.45      9.95        
C           70.05       -43.19      11.01       
C           70.23       -42.14      11.92       
C           75.81       -41.65      9.27        
C           75.92       -42.97      9.58        
S           74.24       -41.1       9.71        
H           74.57       -44.64      10.23       
H           76.76       -43.57      9.29        
C           74.68       -43.61      10.04       
C           73.67       -42.71      10.25       
C           78.6        -39.0       8.44        
C           77.61       -39.01      7.48        
S           78.35       -40.44      9.47        
H           75.53       -39.83      7.16        
H           77.69       -38.27      6.68        
C           76.48       -39.81      7.72        
C           76.77       -40.73      8.72        
C           84.62       -36.24      8.68        
C           83.93       -36.93      7.66        
C           83.96       -36.09      9.9         
C           82.6        -37.41      7.95        
C           81.98       -37.26      9.21        
C           81.96       -38.16      6.96        
C           82.67       -36.52      10.17       
C           82.23       -36.29      11.58       
N           80.97       -36.91      11.86       
C           80.22       -37.53      10.89       
C           82.52       -38.48      5.6         
N           83.78       -37.95      5.35        
C           84.55       -37.17      6.29        
O           81.83       -39.1       4.8         
O           85.63       -36.65      5.93        
O           82.86       -35.68      12.39       
O           79.07       -37.82      11.19       
C           80.39       -36.65      13.17       
C           84.61       -38.56      4.29        
H           79.33       -36.94      13.34       
H           80.52       -35.61      13.36       
H           80.98458    -37.23759   13.86951    
H           85.37       -37.91      3.95        
H           83.99       -38.68      3.43        
H           84.99006    -39.53126   4.60672     
H           84.54       -35.74      10.74       
H           80.17       -39.05      6.35        
C           80.67       -38.56      7.15        
C           80.7        -37.82      9.44        
C           79.92       -38.31      8.35        
C           88.3        -35.04      9.35        
C           88.36       -36.22      8.69        
S           86.66       -34.58      9.7         
H           86.87       -37.79      8.14        
H           89.3        -36.71      8.4         
C           87.09       -36.8       8.46        
C           86.08       -35.89      8.73        
C           90.85       -32.23      10.58       
C           91.26       -33.43      11.09       
S           89.34       -32.41      9.68        
H           90.7        -35.58      10.86       
H           92.17       -33.53      11.73       
C           90.49       -34.52      10.53       
C           89.41       -34.17      9.79        
C           91.51       -28.72      12.13       
C           91.73       -28.68      10.79       
S           91.32       -30.42      12.56       
H           91.33       -30.05      9.0         
H           91.91       -27.75      10.31       
C           91.43       -29.93      10.06       
C           91.26       -30.94      10.93       
C           92.45       -24.16      16.9        
C           93.21       -24.55      15.82       
C           91.11       -24.5       16.86       
C           92.65       -25.43      14.83       
C           91.42       -26.02      14.98       
C           93.37       -25.84      13.65       
C           90.63       -25.48      15.98       
C           89.26       -25.98      16.23       
N           88.88       -27.01      15.37       
C           89.56       -27.48      14.22       
C           94.76       -25.37      13.44       
N           95.26       -24.52      14.44       
C           94.64       -24.12      15.63       
O           95.38       -25.57      12.42       
O           95.24       -23.48      16.43       
O           88.4        -25.36      16.94       
O           89.07       -28.35      13.48       
C           87.54       -27.63      15.59       
C           96.74       -24.43      14.53       
H           87.17       -28.19      14.76       
H           86.87       -26.8       15.73       
H           87.51199    -28.28826   16.45834    
H           96.97       -23.42      14.89       
H           97.08       -24.53      13.5        
H           97.18409    -25.26803   15.0672     
H           90.45       -24.19      17.71       
H           93.62       -27.21      12.09       
C           92.97       -26.88      12.87       
C           90.95       -27.03      14.09       
C           91.73       -27.56      13.03       
C           92.86       -20.96      19.21       
C           92.77       -22.08      20.1        
S           92.83       -21.4       17.55       
H           92.11       -24.15      19.73       
H           92.69       -21.91      21.17       
C           92.54       -23.28      19.32       
C           92.7        -23.16      17.94       
C           94.14       -17.36      20.0        
C           93.04       -17.28      19.21       
S           94.43       -19.0       20.51       
H           91.54       -18.67      18.28       
H           92.82       -16.42      18.62       
C           92.37       -18.53      18.99       
C           93.06       -19.59      19.58       
C           97.07       -14.89      19.46       
C           97.13       -15.34      20.76       
S           95.68       -15.56      18.71       
H           96.04       -16.72      22.15       
H           97.88       -15.12      21.48       
C           96.12       -16.27      21.15       
C           95.21       -16.4       20.13       
C           102.0       -11.22      17.02       
C           101.39      -12.37      16.59       
C           101.51      -10.64      18.22       
C           100.33      -12.82      17.36       
C           99.77       -12.2       18.49       
C           99.72       -14.1       17.02       
C           100.44      -11.03      18.92       
C           100.0       -10.26      20.1        
N           98.93       -10.79      20.8        
C           98.23       -11.95      20.37       
C           100.25      -14.94      15.87       
N           101.38      -14.41      15.21       
C           101.95      -13.17      15.49       
O           99.75       -16.01      15.58       
O           102.85      -12.82      14.7        
O           100.65      -9.28       20.47       
O           97.32       -12.26      21.08       
C           98.11       -9.86       21.64       
C           102.1       -15.35      14.36       
H           97.09       -10.18      21.87       
H           97.98       -9.01       20.98       
H           98.61069    -9.6837     22.59201    
H           102.4       -14.89      13.48       
H           101.35      -16.08      14.05       
H           102.94707   -15.82818   14.85185    
H           102.08      -9.83       18.56       
H           98.2        -15.52      17.41       
C           98.65       -14.57      17.77       
C           98.66       -12.73      19.2        
C           98.07       -13.96      18.83       
C           104.92      -8.94       15.63       
C           105.4       -10.16      15.88       
S           103.25      -8.85       16.05       
H           104.63      -12.07      16.59       
H           106.44      -10.45      15.72       
C           104.43      -11.06      16.34       
C           103.2       -10.51      16.57       
C           107.24      -6.17       14.24       
C           106.48      -5.64       15.32       
S           106.69      -7.77       13.87       
H           104.98      -6.4        16.73       
H           106.69      -4.65       15.78       
C           105.59      -6.56       15.87       
C           105.62      -7.71       15.22       
C           110.57      -4.63       12.74       
C           109.97      -5.49       11.88       
S           109.65      -4.74       14.23       
H           108.13      -6.62       11.6        
H           110.43      -5.66       10.94       
C           108.75      -6.07       12.32       
C           108.4       -5.69       13.55       
C           116.07      -1.34       11.22       
C           114.84      -0.86       11.68       
C           116.22      -2.73       11.07       
C           113.84      -1.84       11.96       
C           114.08      -3.27       11.8        
C           112.54      -1.54       12.33       
C           115.34      -3.69       11.4        
C           115.73      -5.08       10.92       
N           114.8       -6.04       11.24       
C           113.48      -5.73       11.62       
C           112.13      -0.13       12.52       
N           113.11      0.82        12.39       
C           114.5       0.55        12.03       
O           111.02      0.16        12.94       
O           115.38      1.37        11.94       
O           116.88      -5.34       10.53       
O           112.76      -6.68       11.89       
C           114.91      -7.12       10.24       
C           112.73      2.2         12.16       
H           115.01      -6.79       9.2         
H           114.05      -7.69       10.23       
H           115.62511   -7.89289    10.52171    
H           113.53      2.91        12.31       
H           111.92      2.48        12.84       
H           112.38824   2.38455     11.14155    
H           117.21      -3.08       10.64       
H           110.58      -2.12       12.89       
C           111.57      -2.49       12.63       
C           113.08      -4.3        11.91       
C           111.81      -3.91       12.44       
C           119.0       0.95        9.56        
C           119.49      -0.11       10.24       
S           117.31      1.02        9.91        
H           118.76      -1.84       11.35       
H           120.51      -0.36       10.22       
C           118.52      -0.95       10.87       
C           117.23      -0.54       10.69       
C           120.03      3.94        7.15        
C           121.09      3.67        8.06        
S           118.91      2.65        7.3         
H           121.49      2.27        9.74        
H           121.94      4.29        8.04        
C           120.86      2.53        8.94        
C           119.61      1.96        8.7         
C           118.79      6.57        4.49        
C           119.84      7.11        5.16        
S           118.63      4.89        4.98        
H           121.24      6.55        6.74        
H           120.15      8.17        5.03        
C           120.45      6.23        6.11        
C           119.83      5.06        6.19        
C           115.18      10.03       0.12        
C           114.96      9.58        1.43        
C           116.37      9.59        -0.5        
C           115.93      8.89        2.17        
C           117.17      8.52        1.55        
C           115.77      8.5         3.54        
C           117.29      8.88        0.16        
C           118.48      8.44        -0.6        
N           119.46      7.67        0.08        
C           119.32      7.28        1.44        
C           114.46      8.73        4.17        
N           113.53      9.33        3.4         
C           113.74      9.94        2.11        
O           114.17      8.1         5.17        
O           112.84      10.53       1.58        
O           118.53      8.64        -1.81       
O           120.15      6.48        1.93        
C           120.89      7.77        -0.39       
C           112.1       9.06        3.69        
H           120.88      7.21        -1.36       
H           121.53      7.3         0.39        
H           121.17522   8.80849     -0.55821    
H           111.49      9.94        3.35        
H           111.99      9.11        4.8         
H           111.74464   8.09546     3.32739     
H           116.62      9.74        -1.53       
H           116.56      7.54        5.19        
C           116.79      7.88        4.2         
C           118.17      7.77        2.25        
C           117.9       7.35        3.54        
C           113.0       12.38       -2.39       
C           113.14      11.07       -2.92       
S           113.71      12.42       -0.83       
H           114.31      9.27        -2.44       
H           112.75      10.72       -3.9        
C           114.02      10.26       -2.12       
C           114.32      10.76       -0.91       
C           111.28      15.45       -4.14       
C           110.78      15.3        -2.85       
S           112.56      14.22       -4.42       
H           111.39      14.08       -1.08       
H           110.09      15.96       -2.36       
C           111.55      14.34       -2.12       
C           112.47      13.62       -2.82       
H           78.97       23.02       31.81       
H           111.26      16.39       -4.67       
