512

C           76.57       12.57       7.93        
C           77.89       12.46       8.12        
S           76.17       14.27       7.86        
H           79.71       13.79       8.27        
H           78.44       11.52       8.09        
C           78.64       13.75       8.07        
C           77.82       14.78       7.93        
C           73.48       6.89        9.07        
C           73.24       8.17        9.5         
C           74.39       6.73        8.0         
C           74.07       9.24        9.02        
C           75.1        9.07        8.04        
C           73.89       10.56       9.51        
C           75.18       7.78        7.57        
C           76.05       7.42        6.46        
N           76.95       8.41        6.06        
C           76.94       9.75        6.53        
C           72.86       10.88       10.54       
N           72.06       9.81        10.95       
C           72.2        8.53        10.55       
O           72.68       11.97       10.87       
O           71.44       7.7         11.12       
O           76.02       6.37        5.87        
O           77.54       10.63       5.94        
C           77.53       8.25        4.73        
C           70.89       10.09       11.79       
H           76.92       7.72        4.02        
H           77.75       9.14        4.22        
H           78.45308    7.67135     4.76444     
H           69.99       9.55        11.45       
H           70.61       11.1        11.7        
H           70.99567    10.09704    12.87484    
H           74.57       5.77        7.5         
H           74.5        12.62       9.46        
C           74.76       11.6        9.03        
C           75.91       10.09       7.57        
C           75.75       11.39       8.07        
C           72.08       3.2         9.47        
C           72.52       3.62        10.73       
S           72.22       4.51        8.31        
H           73.25       5.54        11.58       
H           72.49       2.91        11.56       
C           73.0        4.99        10.71       
C           73.0        5.52        9.48        
C           70.8        -0.14       7.72        
C           71.49       -0.52       8.82        
S           70.63       1.6         7.6         
H           72.69       0.5         10.41       
H           71.63       -1.54       9.12        
C           72.15       0.61        9.49        
C           71.76       1.86        8.95        
C           69.3        -2.99       5.36        
C           68.63       -1.87       5.08        
S           70.41       -2.72       6.73        
H           68.8        0.29        5.66        
H           67.85       -1.7        4.33        
C           69.01       -0.73       5.93        
C           69.94       -1.04       6.89        
C           67.36       -9.13       3.55        
C           66.63       -7.99       4.04        
C           68.76       -9.01       3.31        
C           67.39       -6.83       4.2         
C           68.79       -6.71       4.01        
C           66.72       -5.64       4.62        
C           69.48       -7.88       3.46        
C           70.93       -7.9        3.18        
N           71.58       -6.7        3.66        
C           71.0        -5.61       4.23        
C           65.28       -5.61       5.0         
N           64.6        -6.85       4.86        
C           65.19       -7.96       4.3         
O           64.74       -4.64       5.5         
O           64.37       -8.76       3.83        
O           71.5        -8.97       2.89        
O           71.63       -4.54       4.35        
C           72.93       -6.25       3.19        
C           63.5        -7.05       5.86        
H           73.48       -5.78       3.99        
H           72.9        -5.45       2.47        
H           73.56462    -6.99403    2.70857     
H           62.6        -7.3        5.32        
H           63.22       -6.1        6.3         
H           63.75104    -7.77522    6.63404     
H           69.34       -9.86       2.9         
H           66.9        -3.64       5.09        
C           67.45       -4.52       4.9         
C           69.5        -5.46       4.31        
C           68.81       -4.3        4.78        
C           66.03       -12.82      3.53        
C           66.89       -12.67      2.45        
S           65.89       -11.3       4.43        
H           67.84       -11.0       1.56        
H           67.2        -13.48      1.74        
C           67.23       -11.28      2.32        
C           66.86       -10.45      3.27        
C           64.5        -16.03      5.26        
C           64.4        -16.17      3.89        
S           65.13       -14.42      5.62        
H           65.09       -15.12      2.02        
H           64.07       -17.03      3.38        
C           64.95       -15.07      3.18        
C           65.35       -14.04      3.94        
C           63.68       -19.14      7.49        
C           63.65       -18.01      8.29        
S           64.11       -18.7       5.85        
H           63.72       -15.71      8.0         
H           63.45       -18.04      9.35        
C           63.83       -16.74      7.57        
C           64.13       -17.0       6.26        
C           62.06       -25.44      8.02        
C           63.21       -24.73      8.4         
C           61.0        -24.65      7.52        
C           63.21       -23.35      8.29        
C           62.14       -22.56      7.75        
C           64.41       -22.58      8.72        
C           61.04       -23.29      7.28        
C           59.88       -22.74      6.59        
N           59.93       -21.36      6.51        
C           60.93       -20.55      6.97        
C           65.63       -23.21      9.23        
N           65.51       -24.65      9.39        
C           64.49       -25.46      8.96        
O           66.7        -22.52      9.46        
O           64.51       -26.65      9.24        
O           59.11       -23.54      6.02        
O           60.81       -19.35      6.85        
C           58.83       -20.66      5.76        
C           66.73       -25.39      10.01       
H           58.8        -21.19      4.77        
H           58.97       -19.59      5.56        
H           57.89716    -20.75603   6.31559     
H           66.3        -26.23      10.59       
H           67.11       -24.72      10.74       
H           67.4882     -25.63346   9.26571     
H           60.08       -25.27      7.19        
H           65.31       -20.73      8.73        
C           64.38       -21.23      8.51        
C           62.17       -21.17      7.56        
C           63.33       -20.49      7.93        
C           61.86       -29.07      6.5         
C           60.78       -28.88      7.24        
S           63.0        -27.79      6.67        
H           60.08       -27.21      8.6         
H           59.84       -29.54      7.21        
C           60.86       -27.63      7.95        
C           61.96       -26.88      7.71        
C           63.57       -31.55      3.97        
C           62.2        -31.54      3.77        
S           63.85       -30.3       5.15        
H           60.37       -30.69      4.63        
H           61.71       -32.16      3.04        
C           61.46       -30.76      4.67        
C           62.17       -30.08      5.53        
C           66.75       -33.62      2.98        
C           65.98       -33.39      1.86        
S           66.0        -32.91      4.23        
H           64.12       -32.49      1.16        
H           66.29       -33.73      0.87        
C           64.76       -32.66      1.99        
C           64.65       -32.27      3.29        
C           72.5        -36.85      2.15        
C           72.08       -35.74      2.92        
C           71.45       -37.61      1.62        
C           70.73       -35.33      2.98        
C           69.7        -36.04      2.4         
C           70.32       -34.11      3.6         
C           70.08       -37.23      1.79        
C           69.1        -38.22      1.26        
N           67.77       -37.85      1.31        
C           67.31       -36.65      1.87        
C           71.26       -33.19      4.21        
N           72.62       -33.69      4.25        
C           73.08       -34.91      3.72        
O           70.89       -32.21      4.77        
O           74.32       -35.04      3.83        
O           69.46       -39.23      0.69        
O           66.15       -36.3       1.6         
C           66.77       -38.79      0.74        
C           73.61       -32.63      4.42        
H           66.99       -38.84      -0.32       
H           65.72       -38.42      0.75        
H           66.57974    -39.59333   1.45173     
H           74.34       -33.03      5.14        
H           73.1        -31.79      4.97        
H           74.13831    -32.29445   3.52759     
H           71.64       -38.43      0.93        
H           68.78       -32.67      3.82        
C           68.99       -33.69      3.51        
C           68.34       -35.66      2.48        
C           67.96       -34.41      3.01        
C           76.07       -37.48      0.6         
C           75.6        -38.65      1.06        
S           74.92       -36.26      0.96        
H           73.75       -39.46      2.01        
H           76.12       -39.63      0.96        
C           74.22       -38.55      1.58        
C           73.83       -37.29      1.71        
C           78.92       -35.68      -1.22       
C           79.33       -36.98      -1.2        
S           77.34       -35.47      -0.6        
H           78.25       -38.92      -0.64       
H           80.29       -37.35      -1.6        
C           78.25       -37.84      -0.61       
C           77.16       -37.14      -0.16       
C           80.17       -32.22      -2.53       
C           81.24       -32.89      -1.98       
S           78.74       -33.13      -2.3        
H           81.63       -34.92      -1.07       
H           82.17       -32.36      -1.86       
C           80.92       -34.2       -1.51       
C           79.58       -34.44      -1.59       
C           80.1        -25.69      -3.27       
C           80.26       -26.56      -2.12       
C           79.89       -26.34      -4.54       
C           80.18       -27.91      -2.31       
C           79.89       -28.53      -3.59       
C           80.24       -28.8       -1.18       
C           79.78       -27.73      -4.66       
C           79.72       -28.27      -6.04       
N           79.94       -29.63      -6.24       
C           79.99       -30.5       -5.14       
C           80.32       -28.34      0.26        
N           80.5        -26.96      0.44        
C           80.49       -26.1       -0.66       
O           80.58       -29.0       1.2         
O           80.77       -24.85      -0.43       
O           79.62       -27.37      -6.9        
O           80.07       -31.69      -5.32       
C           80.56       -30.07      -7.5        
C           80.46       -26.38      1.83        
H           80.84       -31.15      -7.47       
H           81.51       -29.55      -7.56       
H           79.93214    -30.01768   -8.38947    
H           81.0        -25.51      1.81        
H           80.94       -27.07      2.52        
H           79.43284    -26.24813   2.17007     
H           79.82       -25.75      -5.42       
H           80.37       -30.89      -0.53       
C           80.26       -30.21      -1.38       
C           80.04       -29.94      -3.77       
C           80.24       -30.78      -2.66       
C           81.11       -21.8       -3.49       
C           79.75       -21.87      -3.42       
S           81.76       -23.4       -3.41       
H           78.23       -23.5       -3.29       
H           79.05       -21.09      -3.4        
C           79.28       -23.22      -3.35       
C           80.26       -24.16      -3.38       
C           82.52       -18.28      -4.1        
C           83.57       -19.11      -3.98       
S           81.05       -19.08      -3.7        
H           83.92       -21.27      -3.97       
H           84.57       -18.7       -4.17       
C           83.22       -20.51      -3.86       
C           81.88       -20.61      -3.67       
C           82.77       -14.95      -6.21       
C           81.84       -14.72      -5.22       
S           83.39       -16.58      -6.12       
H           80.99       -15.89      -3.48       
H           81.36       -13.74      -5.05       
C           81.66       -15.86      -4.34       
C           82.48       -16.98      -4.65       
C           84.39       -10.35      -10.59      
C           83.65       -11.51      -10.65      
C           84.89       -9.95       -9.32       
C           83.47       -12.32      -9.49       
C           83.95       -11.96      -8.24       
C           82.77       -13.54      -9.59       
C           84.73       -10.73      -8.17       
C           85.23       -10.19      -6.89       
N           85.08       -11.01      -5.82       
C           84.44       -12.26      -5.83       
C           82.32       -14.06      -10.9       
N           82.56       -13.24      -12.0       
C           83.22       -11.97      -11.96      
O           81.69       -15.15      -10.93      
O           83.12       -11.32      -13.01      
O           85.86       -9.1        -6.84       
O           84.38       -12.94      -4.78       
C           85.86       -10.63      -4.62       
C           82.14       -13.81      -13.34      
H           86.83       -10.19      -4.86       
H           86.06       -11.44      -3.89       
H           85.28794    -9.87874    -4.07551    
H           81.88       -13.01      -14.03      
H           81.19       -14.32      -13.21      
H           82.8506     -14.5206    -13.76214   
H           85.46       -9.03       -9.25       
H           82.11       -15.37      -8.62       
C           82.62       -14.38      -8.48       
C           83.77       -12.77      -7.11       
C           83.11       -13.98      -7.21       
C           86.47       -8.33       -13.39      
C           86.34       -9.64       -13.69      
S           85.6        -7.98       -11.88      
H           85.65       -11.49      -12.89      
H           86.84       -10.05      -14.54      
C           85.76       -10.42      -12.68      
C           85.16       -9.66       -11.64      
C           88.77       -6.12       -15.65      
C           88.34       -5.29       -14.62      
S           88.11       -7.7        -15.5       
H           87.1        -5.67       -12.79      
H           88.69       -4.29       -14.45      
C           87.44       -6.05       -13.74      
C           87.22       -7.33       -14.07      
C           90.85       -5.76       -18.98      
C           91.54       -5.17       -18.0       
S           89.4        -6.49       -18.31      
H           91.29       -4.68       -15.77      
H           92.54       -4.77       -18.16      
C           90.88       -5.18       -16.72      
C           89.69       -5.87       -16.75      
C           93.38       -5.65       -24.99      
C           92.13       -5.62       -24.47      
C           94.47       -6.01       -24.11      
C           91.9        -5.74       -23.08      
C           92.93       -6.11       -22.2       
C           90.57       -5.56       -22.56      
C           94.26       -6.24       -22.77      
C           95.47       -6.27       -21.99      
N           95.32       -6.58       -20.61      
C           94.0        -6.55       -20.0       
C           89.44       -5.28       -23.44      
N           89.69       -5.12       -24.82      
C           90.94       -5.25       -25.34      
O           88.33       -5.04       -22.97      
O           91.0        -4.94       -26.53      
O           96.59       -6.39       -22.54      
O           93.99       -6.74       -18.77      
C           96.42       -7.03       -19.86      
C           88.6        -5.1        -25.82      
H           96.93       -7.9        -20.28      
H           96.0        -7.37       -18.96      
H           97.11809    -6.23515    -19.59735   
H           88.71       -4.33       -26.54      
H           87.7        -4.75       -25.27      
H           88.43034    -6.08966    -26.24414   
H           95.49       -6.09       -24.55      
H           89.42       -5.45       -20.89      
C           90.41       -5.68       -21.21      
C           92.77       -6.22       -20.81      
C           91.47       -6.02       -20.29      
C           95.08       -5.19       -28.48      
C           94.12       -6.16       -28.63      
S           95.24       -4.69       -26.83      
H           92.61       -7.15       -27.32      
H           93.65       -6.52       -29.59      
C           93.51       -6.53       -27.38      
C           93.94       -5.75       -26.39      
C           97.21       -3.69       -31.43      
C           97.92       -3.58       -30.28      
S           95.72       -4.51       -31.13      
H           97.75       -4.33       -28.25      
H           98.87       -3.06       -30.23      
C           97.3        -4.24       -29.19      
C           96.04       -4.65       -29.44      
C           98.98       -2.46       -34.72      
C           97.78       -2.94       -35.16      
S           99.13       -2.75       -32.99      
H           95.99       -3.9        -34.15      
H           97.32       -2.96       -36.24      
C           96.91       -3.36       -34.03      
C           97.61       -3.41       -32.81      
C           103.59      1.14        -37.53      
C           103.23      -0.17       -37.72      
C           102.99      1.92        -36.54      
C           102.13      -0.65       -37.0       
C           101.39      0.17        -36.02      
C           101.62      -1.93       -37.17      
C           101.89      1.53        -35.82      
C           101.26      2.55        -34.94      
N           100.29      2.04        -34.11      
C           99.82       0.66        -34.23      
C           102.2       -2.96       -38.16      
N           103.26      -2.39       -38.89      
C           103.84      -1.1        -38.76      
O           101.77      -4.11       -38.2       
O           104.74      -0.77       -39.54      
O           101.72      3.67        -34.87      
O           98.92       0.46        -33.48      
C           99.23       3.01        -33.77      
C           104.04      -3.25       -39.82      
H           98.2        2.61        -33.81      
H           99.28       3.7         -34.57      
H           99.51122    3.57947     -32.88416   
H           104.15      -2.6        -40.71      
H           103.45      -4.15       -40.05      
H           105.00787   -3.61125    -39.47239   
H           103.35      2.92        -36.4       
H           100.13      -3.33       -36.67      
C           100.51      -2.35       -36.47      
C           100.38      -0.35       -35.23      
C           99.91       -1.6        -35.46      
C           106.65      3.26        -38.84      
C           107.19      1.98        -38.41      
S           104.94      3.37        -38.54      
H           106.24      0.19        -37.4       
H           108.24      1.7         -38.41      
C           106.1       1.19        -37.88      
C           104.83      1.81        -37.96      
C           108.63      6.46        -40.11      
C           107.3       6.76        -39.95      
S           108.91      4.81        -39.67      
H           105.4       5.68        -39.47      
H           106.84      7.68        -40.18      
C           106.45      5.6         -39.61      
C           107.26      4.51        -39.31      
C           110.91      9.04        -41.93      
C           111.73      8.04        -41.62      
S           109.33      8.87        -41.25      
H           111.54      6.0         -40.81      
H           112.83      8.05        -41.79      
C           111.02      6.89        -41.08      
C           109.69      7.23        -40.77      
C           112.33      14.1        -45.92      
C           112.61      12.73       -46.0       
C           111.74      14.56       -44.72      
C           112.33      11.91       -44.85      
C           111.83      12.4        -43.66      
C           112.42      10.51       -44.94      
C           111.61      13.82       -43.62      
C           110.95      14.54       -42.48      
N           110.56      13.72       -41.46      
C           110.76      12.29       -41.45      
C           112.68      9.84        -46.27      
N           113.29      10.63       -47.29      
C           113.24      12.01       -47.22      
O           112.71      8.6         -46.41      
O           113.66      12.69       -48.15      
O           110.74      15.75       -42.5       
O           110.49      11.62       -40.48      
C           110.34      14.28       -40.11      
C           114.33      10.14       -48.07      
H           111.2       14.78       -39.77      
H           110.03      13.54       -39.36      
H           109.43511   14.88563    -40.06012   
H           114.51      10.77       -48.84      
H           113.96      9.25        -48.54      
H           115.21115   9.9041      -47.47332   
H           111.46      15.62       -44.59      
H           111.97      8.68        -44.18      
C           111.99      9.69        -43.92      
C           111.35      11.61       -42.58      
C           111.46      10.17       -42.68      
C           112.09      16.77       -48.87      
C           113.32      16.9        -48.34      
S           111.12      15.58       -48.08      
H           114.55      15.89       -46.95      
H           114.03      17.61       -48.72      
C           113.54      15.97       -47.27      
C           112.4       15.2        -46.94      
C           109.86      18.14       -51.74      
C           111.06      18.83       -51.78      
S           109.87      16.97       -50.46      
H           112.93      18.93       -50.62      
H           111.42      19.47       -52.55      
C           111.93      18.49       -50.69      
C           111.44      17.44       -49.94      
C           107.09      19.32       -54.15      
C           106.84      18.02       -53.77      
S           108.5       19.85       -53.19      
H           107.86      16.39       -52.58      
H           105.95      17.46       -54.0       
C           107.82      17.37       -53.0       
C           108.78      18.22       -52.66      
C           102.88      22.75       -57.8       
C           104.28      22.71       -57.64      
C           102.2       21.88       -56.94      
C           104.97      21.69       -56.92      
C           104.22      20.95       -55.91      
C           106.39      21.53       -56.89      
C           102.79      21.1        -55.99      
C           101.94      20.36       -54.96      
N           102.58      19.73       -53.91      
C           103.95      19.58       -53.86      
C           107.31      22.46       -57.62      
N           106.62      23.42       -58.41      
C           105.23      23.56       -58.47      
O           108.53      22.37       -57.69      
O           104.75      24.48       -59.21      
O           100.74      20.37       -55.04      
O           104.4       18.95       -52.91      
C           101.7       19.6        -52.7       
C           107.4       24.42       -59.15      
H           100.87      20.31       -52.68      
H           102.31      19.96       -51.83      
H           101.3179    18.58348    -52.60628   
H           106.89      24.68       -60.04      
H           108.38      24.06       -59.4       
H           107.4721    25.37176    -58.62365   
H           101.14      21.91       -56.89      
H           107.94      20.48       -55.98      
C           106.87      20.62       -56.0       
C           104.81      20.13       -54.92      
C           106.16      20.02       -54.97      
C           100.35      25.19       -59.56      
C           100.17      23.91       -60.05      
S           101.77      25.17       -58.54      
H           100.74      21.9        -59.59      
H           99.27       23.6        -60.66      
C           100.95      22.97       -59.39      
C           102.03      23.5        -58.72      
C           98.78       28.73       -59.43      
C           97.88       27.91       -60.05      
S           100.28      27.9        -59.07      
H           97.77       25.72       -60.52      
H           96.91       28.26       -60.4       
C           98.33       26.56       -60.12      
C           99.63       26.41       -59.67      
H           78.15       15.75       7.63        
H           98.49       29.7        -58.95      
