512

C           81.56       35.55       41.56       
C           81.32       35.26       40.21       
S           83.25       35.32       41.83       
H           82.41       34.39       38.46       
H           80.33       35.47       39.75       
C           82.48       34.74       39.49       
C           83.62       34.7        40.23       
C           76.52       38.83       44.33       
C           77.39       39.09       43.28       
C           76.77       37.69       45.08       
C           78.45       38.2        42.99       
C           78.63       37.04       43.71       
C           79.27       38.48       41.86       
C           77.8        36.81       44.81       
C           77.88       35.62       45.67       
N           78.98       34.78       45.35       
C           79.83       34.96       44.26       
C           79.06       39.64       40.97       
N           78.02       40.48       41.28       
C           77.17       40.23       42.37       
O           79.81       39.85       40.04       
O           76.34       41.12       42.56       
O           77.3        35.63       46.73       
O           80.71       34.1        44.1        
C           79.44       33.86       46.54       
C           77.45       41.23       40.13       
H           80.45       33.78       46.48       
H           79.33       34.34       47.53       
H           78.90804    32.90957    46.49744    
H           76.38       41.08       40.21       
H           77.94       40.85       39.15       
H           77.56291    42.30597    40.26284    
H           76.25       37.46       46.02       
H           80.83       37.82       40.66       
C           80.27       37.57       41.58       
C           79.71       36.19       43.41       
C           80.51       36.37       42.26       
C           73.45       40.48       46.35       
C           74.5        41.35       46.31       
S           73.88       39.07       45.39       
H           76.59       41.42       45.3        
H           74.57       42.26       46.95       
C           75.57       40.94       45.42       
C           75.44       39.63       44.97       
C           69.82       40.18       47.76       
C           70.69       40.58       48.76       
S           70.72       39.88       46.32       
H           72.85       41.13       49.08       
H           70.41       40.79       49.75       
C           72.04       40.77       48.41       
C           72.24       40.36       47.12       
C           66.27       38.64       48.02       
C           66.21       39.65       47.12       
S           67.89       38.55       48.72       
H           67.54       41.13       46.26       
H           65.34       39.92       46.52       
C           67.43       40.32       46.98       
C           68.42       39.93       47.8        
C           61.0        34.79       48.93       
C           61.22       36.17       49.15       
C           62.07       34.07       48.39       
C           62.53       36.72       48.81       
C           63.57       35.96       48.24       
C           62.86       38.07       49.08       
C           63.29       34.62       48.0        
C           64.25       33.68       47.35       
N           65.46       34.27       46.95       
C           65.77       35.62       47.16       
C           61.85       39.01       49.63       
N           60.62       38.39       49.93       
C           60.22       37.07       49.71       
O           62.07       40.19       49.82       
O           59.02       36.75       49.89       
O           64.04       32.51       47.21       
O           66.85       36.01       46.75       
C           66.35       33.45       46.12       
C           59.58       39.29       50.56       
H           66.82       32.64       46.67       
H           67.25       34.01       45.84       
H           65.88587    33.18277    45.17065    
H           58.59       39.05       50.09       
H           59.63       40.26       50.21       
H           59.55792    39.26056    51.64938    
H           61.91       32.99       48.21       
H           64.22       39.66       48.86       
C           64.08       38.58       48.79       
C           64.89       36.53       47.92       
C           65.08       37.87       48.18       
C           57.58       32.65       49.03       
C           57.84       33.09       50.28       
S           58.86       33.13       47.99       
H           59.28       34.38       51.27       
H           57.25       32.85       51.11       
C           59.13       33.77       50.39       
C           59.79       34.0        49.17       
C           54.61       30.21       48.05       
C           55.1        30.79       46.91       
S           55.41       30.9        49.45       
H           56.8        32.1        46.44       
H           54.8        30.48       45.94       
C           56.21       31.67       47.19       
C           56.45       31.87       48.51       
C           52.67       26.85       48.01       
C           52.08       27.67       49.01       
S           53.91       27.78       47.23       
H           52.45       29.61       49.92       
H           51.4        27.34       49.75       
C           52.75       28.91       49.14       
C           53.59       29.19       48.12       
C           53.03       20.27       47.62       
C           53.18       21.17       48.68       
C           52.76       20.77       46.34       
C           52.96       22.52       48.46       
C           52.69       23.02       47.18       
C           52.92       23.44       49.53       
C           52.58       22.08       46.14       
C           52.39       22.51       44.78       
N           52.3        23.89       44.43       
C           52.4        24.87       45.46       
C           53.29       23.11       50.9        
N           53.6        21.82       51.05       
C           53.41       20.76       50.13       
O           53.28       24.04       51.73       
O           53.13       19.64       50.51       
O           52.22       21.74       43.9        
O           52.44       26.03       45.16       
C           52.95       24.3        43.15       
C           54.29       21.39       52.24       
H           53.41       23.48       42.63       
H           53.58       25.18       43.24       
H           52.20807    24.6897     42.45303    
H           53.92       20.44       52.55       
H           54.06       22.08       53.08       
H           55.36318    21.30745    52.06802    
H           52.69       20.05       45.5        
H           52.82       25.54       50.15       
C           52.77       24.81       49.29       
C           52.62       24.44       46.92       
C           52.61       25.36       47.97       
C           54.48       16.48       47.99       
C           53.2        16.4        47.49       
S           54.83       18.12       48.35       
H           51.67       17.89       46.9        
H           52.78       15.56       47.02       
C           52.61       17.73       47.36       
C           53.33       18.83       47.75       
C           57.43       13.84       48.25       
C           56.3        13.22       48.75       
S           57.11       15.55       47.95       
H           54.13       13.69       48.91       
H           56.32       12.19       49.17       
C           55.1        14.08       48.63       
C           55.4        15.4        48.28       
C           60.66       11.72       47.86       
C           61.07       12.96       48.29       
S           58.93       11.63       47.76       
H           60.09       14.98       48.58       
H           62.12       13.31       48.35       
C           59.96       13.9        48.39       
C           58.73       13.28       48.22       
C           65.76       7.87        46.13       
C           64.53       8.22        45.47       
C           65.99       8.52        47.35       
C           63.6        9.08        46.18       
C           63.86       9.62        47.47       
C           62.3        9.38        45.64       
C           65.13       9.31        48.01       
C           65.49       9.71        49.39       
N           64.51       10.46       50.09       
C           63.25       10.75       49.53       
C           61.94       8.82        44.3        
N           62.9        8.05        43.56       
C           64.19       7.67        44.11       
O           60.97       9.28        43.74       
O           64.9        6.97        43.4        
O           66.54       9.45        49.84       
O           62.54       11.46       50.16       
C           64.42       10.32       51.6        
C           62.51       7.47        42.33       
H           64.7        9.3         51.79       
H           63.47       10.5        52.07       
H           65.14679    11.00445    52.03749    
H           63.34       7.16        41.69       
H           62.03       8.27        41.77       
H           61.73985    6.69985     42.37279    
H           66.97       8.29        47.87       
H           60.51       10.5        45.71       
C           61.4        10.23       46.27       
C           62.88       10.38       48.16       
C           61.67       10.75       47.52       
C           69.24       6.21        44.98       
C           68.69       5.47        45.96       
S           68.13       7.47        44.52       
H           66.9        5.53        47.17       
H           69.19       4.62        46.39       
C           67.43       6.0         46.38       
C           66.93       7.04        45.68       
C           72.73       6.65        43.36       
C           72.65       5.35        43.73       
S           71.34       7.54        43.79       
H           71.08       4.03        44.59       
H           73.34       4.57        43.42       
C           71.37       5.01        44.29       
C           70.57       6.09        44.44       
C           75.24       9.04        41.65       
C           75.9        8.24        42.47       
S           73.56       8.7         41.72       
H           75.44       6.69        44.03       
H           76.96       8.31        42.73       
C           75.06       7.39        43.29       
C           73.78       7.46        42.89       
C           78.55       13.9        38.7        
C           78.34       13.58       40.03       
C           77.91       13.13       37.68       
C           77.47       12.51       40.36       
C           76.76       11.82       39.38       
C           77.3        12.12       41.7        
C           76.98       12.17       38.01       
C           76.37       11.41       36.9        
N           75.59       10.29       37.28       
C           75.28       9.97        38.64       
C           77.96       12.93       42.77       
N           78.74       13.97       42.42       
C           79.04       14.36       41.11       
O           77.83       12.53       43.95       
O           79.84       15.27       40.96       
O           76.78       11.62       35.78       
O           74.52       9.06        38.95       
C           74.93       9.49        36.25       
C           79.76       14.37       43.44       
H           74.65       10.06       35.44       
H           74.03       9.07        36.61       
H           75.60504    8.7439      35.83076    
H           80.75       14.29       43.01       
H           79.7        13.78       44.35       
H           79.62983    15.4186     43.70757    
H           78.22       13.27       36.66       
H           76.37       10.72       43.04       
C           76.47       11.03       42.01       
C           75.93       10.76       39.73       
C           75.88       10.24       41.05       
C           80.59       16.46       36.47       
C           81.42       15.74       37.23       
S           78.94       16.12       36.84       
H           81.34       14.03       38.77       
H           82.52       15.77       37.07       
C           80.77       14.79       38.12       
C           79.44       14.83       37.95       
C           81.64       18.9        33.51       
C           80.57       19.41       34.1        
S           82.0        17.32       34.18       
H           79.41       19.02       35.96       
H           79.96       20.36       33.81       
C           80.17       18.67       35.29       
C           80.83       17.51       35.5        
C           82.77       20.8        30.29       
C           83.6        19.68       30.41       
S           81.63       20.85       31.59       
H           83.76       17.99       31.82       
H           84.41       19.42       29.74       
C           83.2        18.86       31.48       
C           82.18       19.37       32.29       
C           83.6        24.72       25.01       
C           82.51       24.12       25.6        
C           84.79       24.45       25.66       
C           82.63       23.35       26.79       
C           83.86       23.11       27.43       
C           81.5        22.7        27.41       
C           85.0        23.73       26.83       
C           86.37       23.68       27.4        
N           86.53       23.02       28.54       
C           85.43       22.34       29.17       
C           80.12       22.88       26.85       
N           80.11       23.71       25.75       
C           81.18       24.37       25.09       
O           79.15       22.26       27.32       
O           80.91       25.23       24.25       
O           87.35       24.16       26.83       
O           85.74       21.69       30.23       
C           87.84       22.99       29.24       
C           78.76       24.26       25.37       
H           87.9        22.36       30.16       
H           88.11       24.0        29.54       
H           88.63406    22.54421    28.64097    
H           78.77       25.31       25.37       
H           78.07       23.79       26.01       
H           78.3968     23.97671    24.38211    
H           85.69       24.67       25.09       
H           80.69       21.68       29.02       
C           81.64       21.95       28.58       
C           83.96       22.42       28.68       
C           82.88       21.78       29.26       
C           83.98       26.5        21.44       
C           84.59       27.29       22.41       
S           83.05       25.2        22.18       
H           84.92       27.19       24.63       
H           85.04       28.24       22.15       
C           84.43       26.74       23.76       
C           83.73       25.54       23.8        
C           84.58       27.4        17.65       
C           83.8        26.33       17.69       
S           84.94       27.89       19.22       
H           82.88       25.02       19.29       
H           83.41       25.8        16.91       
C           83.47       25.86       19.01       
C           84.02       26.66       19.98       
C           86.7        29.33       14.9        
C           85.42       29.21       14.54       
S           86.76       28.71       16.51       
H           83.39       28.57       15.25       
H           85.19       29.63       13.59       
C           84.43       28.63       15.41       
C           85.06       28.2        16.53       
C           91.64       32.24       11.6        
C           90.4        32.67       11.9        
C           92.1        31.01       12.11       
C           89.58       31.8        12.71       
C           89.96       30.52       13.17       
C           88.24       32.11       13.02       
C           91.26       30.18       12.88       
C           91.95       28.88       13.32       
N           91.05       27.99       13.87       
C           89.68       28.27       14.0        
C           87.67       33.46       12.8        
N           88.46       34.36       12.12       
C           89.76       34.06       11.6        
O           86.62       33.82       13.17       
O           90.32       34.93       10.94       
O           93.15       28.61       13.21       
O           88.92       27.43       14.44       
C           91.38       26.54       13.8        
C           88.23       35.76       12.23       
H           91.78       26.48       12.79       
H           90.52       25.84       13.78       
H           92.02516    26.21371    14.61572    
H           89.2        36.29       12.32       
H           87.69       36.02       13.19       
H           87.68166    36.21924    11.40749    
H           93.12       30.68       12.01       
H           86.38       31.64       14.0        
C           87.38       31.26       13.75       
C           89.09       29.62       13.78       
C           87.78       29.99       14.1        
C           94.72       34.33       10.4        
C           94.57       33.15       9.64        
S           93.34       34.5        11.36       
H           93.3        31.36       9.64        
H           95.27       32.86       8.91        
C           93.46       32.34       10.02       
C           92.65       32.99       10.84       
C           97.93       36.48       9.7         
C           97.26       37.1        10.69       
S           97.06       35.09       9.18        
H           95.14       37.01       11.48       
H           97.5        38.08       11.03       
C           95.94       36.54       10.91       
C           95.78       35.29       10.37       
C           101.01      38.46       8.23        
C           100.97      37.16       7.69        
S           99.72       38.53       9.37        
H           99.69       35.37       7.65        
H           101.66      36.88       6.93        
C           99.87       36.32       8.06        
C           99.14       36.95       9.04        
C           104.77      43.47       6.04        
C           103.87      42.63       5.39        
C           104.95      43.28       7.42        
C           103.14      41.67       6.16        
C           103.29      41.48       7.61        
C           102.26      40.76       5.59        
C           104.28      42.37       8.17        
C           104.69      42.23       9.57        
N           104.06      41.17       10.35       
C           103.04      40.3        9.79        
C           102.01      40.71       4.17        
N           102.69      41.63       3.41        
C           103.64      42.57       3.88        
O           101.12      40.06       3.72        
O           104.21      43.27       3.03        
O           105.33      43.09       10.19       
O           102.77      39.31       10.47       
C           104.37      41.04       11.83       
C           102.35      41.73       1.96        
H           103.54      40.46       12.28       
H           104.27      41.99       12.36       
H           105.35166   40.57389    11.91475    
H           102.24      42.8        1.63        
H           101.28      41.39       1.77        
H           103.03465   41.23899    1.26843     
H           105.68      43.87       7.94        
H           100.94      39.08       5.79        
C           101.6       39.76       6.36        
C           102.64      40.48       8.33        
C           101.82      39.58       7.72        
C           107.7       45.48       4.35        
C           106.56      46.25       4.2         
S           107.35      43.96       5.25        
H           104.52      46.17       5.16        
H           106.51      47.22       3.72        
C           105.43      45.65       4.9         
C           105.7       44.42       5.4         
C           111.06      47.01       3.2         
C           111.34      45.76       3.63        
S           109.36      47.43       3.35        
H           110.12      44.05       4.55        
H           112.35      45.36       3.68        
C           110.15      45.09       4.14        
C           109.05      45.83       4.01        
C           114.2       49.16       2.0         
C           113.09      49.96       2.01        
S           113.67      47.56       2.45        
H           110.96      49.9        2.46        
H           113.11      51.03       1.81        
C           111.91      49.32       2.46        
C           112.02      47.99       2.73        
C           120.49      50.77       1.91        
C           119.43      51.27       2.65        
C           120.31      49.6        1.05        
C           118.19      50.68       2.41        
C           117.91      49.69       1.46        
C           117.08      51.2        3.1         
C           119.04      49.16       0.76        
C           118.88      48.02       -0.2        
N           117.61      47.8        -0.68       
C           116.46      48.25       0.04        
C           117.17      52.29       4.22        
N           118.39      52.83       4.28        
C           119.53      52.36       3.63        
O           116.15      52.79       4.69        
O           120.57      52.7        4.02        
O           119.91      47.53       -0.78       
O           115.32      47.95       -0.36       
C           117.45      46.75       -1.67       
C           118.46      54.23       4.68        
H           116.44      46.32       -1.58       
H           118.14      45.97       -1.44       
H           117.5359    47.09362    -2.70085    
H           119.47      54.51       5.04        
H           117.76      54.35       5.56        
H           118.16101   54.93923    3.90819     
H           121.14      49.13       0.48        
H           115.05      50.88       3.57        
C           115.84      50.64       2.85        
C           116.62      49.26       1.08        
C           115.51      49.68       1.85        
C           123.89      52.73       1.39        
C           124.08      51.42       1.25        
S           122.14      53.01       1.54        
H           122.92      49.49       1.38        
H           125.07      51.03       0.88        
C           122.93      50.58       1.53        
C           121.85      51.25       1.77        
C           125.72      56.19       1.05        
C           126.69      55.28       0.83        
S           124.12      55.49       1.4         
H           126.72      53.07       0.76        
H           127.73      55.54       0.67        
C           126.1       53.93       0.87        
C           124.75      53.85       1.08        
C           126.36      59.86       -0.02       
C           125.49      59.87       1.05        
S           126.62      58.22       -0.52       
H           124.61      58.44       2.47        
H           125.07      60.75       1.56        
C           125.27      58.56       1.59        
C           125.85      57.6        0.85        
C           128.35      65.36       -3.15       
C           127.1       64.86       -2.8        
C           129.41      64.53       -2.88       
C           127.02      63.6        -2.14       
C           128.12      62.83       -1.77       
C           125.82      63.04       -1.7        
C           129.35      63.36       -2.17       
C           130.62      62.61       -2.03       
N           130.59      61.42       -1.27       
C           129.34      61.0        -0.66       
C           124.56      63.75       -1.86       
N           124.6       64.97       -2.59       
C           125.8       65.52       -3.02       
O           123.54      63.26       -1.39       
O           125.7       66.67       -3.49       
O           131.7       63.05       -2.46       
O           129.37      59.94       -0.04       
C           131.52      60.39       -1.69       
C           123.3       65.47       -3.11       
H           131.6       60.54       -2.8        
H           131.06      59.33       -1.67       
H           132.51812   60.46899    -1.25916    
H           123.36      66.61       -3.11       
H           122.53      65.07       -2.42       
H           123.02224   65.13669    -4.10993    
H           130.34      64.77       -3.16       
H           124.75      61.48       -0.81       
C           125.76      61.82       -1.08       
C           128.04      61.63       -1.06       
C           126.83      61.12       -0.66       
C           129.1       68.45       -5.65       
C           130.06      68.37       -4.75       
S           127.99      67.08       -5.54       
H           130.38      67.3        -2.83       
H           130.9       69.01       -4.71       
C           129.79      67.41       -3.7        
C           128.66      66.6        -3.93       
C           129.36      71.29       -8.26       
C           128.17      70.58       -8.46       
S           130.24      70.52       -6.99       
H           126.96      68.94       -7.57       
H           127.41      71.0        -9.11       
C           127.9       69.51       -7.58       
C           128.93      69.39       -6.69       
H           84.64       34.85       39.84       
H           129.61      72.21       -8.68       
