512

C           89.9        33.21       5.69        
C           91.27       33.47       5.63        
S           89.63       31.58       6.3         
H           93.15       32.39       5.99        
H           91.6        34.35       5.14        
C           92.07       32.37       6.16        
C           91.32       31.23       6.44        
C           86.04       37.2        2.11        
C           87.15       36.44       1.77        
C           85.68       37.39       3.46        
C           87.75       35.71       2.77        
C           87.34       35.72       4.13        
C           88.95       35.02       2.53        
C           86.27       36.61       4.43        
C           85.71       36.85       5.8         
N           86.32       36.12       6.81        
C           87.44       35.28       6.58        
C           89.47       34.75       1.16        
N           88.82       35.52       0.14        
C           87.75       36.4        0.4         
O           90.24       33.85       0.89        
O           87.49       37.14       -0.52       
O           84.82       37.7        6.01        
O           87.7        34.63       7.61        
C           85.82       36.19       8.14        
C           89.19       35.43       -1.23       
H           86.56       36.03       8.94        
H           85.47       37.18       8.4         
H           84.99566    35.49618    8.30487     
H           88.34       35.55       -1.87       
H           89.49       34.38       -1.42       
H           89.95165    36.13676    -1.55936    
H           84.76       37.82       3.81        
H           90.37       33.6        3.3         
C           89.44       34.16       3.53        
C           87.94       34.98       5.22        
C           88.98       34.05       4.87        
C           82.97       37.7        -0.37       
C           82.76       38.6        0.69        
S           84.47       36.87       -0.29       
H           83.88       38.96       2.55        
H           81.81       39.07       0.91        
C           83.87       38.44       1.65        
C           84.94       37.67       1.17        
C           80.05       36.15       -2.36       
C           81.12       36.09       -3.19       
S           80.45       36.98       -0.89       
H           83.23       36.65       -2.95       
H           81.13       35.49       -4.14       
C           82.31       36.69       -2.57       
C           82.07       37.32       -1.42       
C           76.56       34.3        -2.15       
C           76.88       34.48       -3.39       
S           77.74       35.07       -1.17       
H           78.47       35.35       -4.66       
H           76.31       34.0        -4.15       
C           78.03       35.23       -3.65       
C           78.7        35.54       -2.51       
C           71.22       30.76       -0.7        
C           71.41       32.1        -0.94       
C           72.38       29.94       -0.68       
C           72.77       32.51       -1.17       
C           73.92       31.69       -1.23       
C           73.04       33.89       -1.36       
C           73.67       30.37       -0.91       
C           74.72       29.4        -1.11       
N           76.02       29.89       -1.32       
C           76.38       31.22       -1.42       
C           71.97       34.94       -1.21       
N           70.68       34.45       -0.91       
C           70.32       33.08       -0.86       
O           72.2        36.19       -1.17       
O           69.14       32.82       -0.61       
O           74.47       28.26       -1.05       
O           77.56       31.54       -1.64       
C           77.15       28.98       -1.08       
C           69.87       35.44       -0.26       
H           77.07       28.38       -0.2        
H           78.12       29.56       -0.92       
H           77.31306    28.39864    -1.98749    
H           68.87       35.09       -0.17       
H           69.88       36.35       -0.83       
H           70.25175    35.64823    0.7395      
H           72.37       28.88       -0.52       
H           74.49       35.46       -1.61       
C           74.31       34.4        -1.5        
C           75.2        32.17       -1.56       
C           75.38       33.54       -1.73       
C           68.29       28.21       -0.64       
C           68.05       29.07       0.35        
S           69.74       28.47       -1.53       
H           68.97       31.02       1.02        
H           67.19       29.03       1.01        
C           69.03       30.13       0.34        
C           70.02       29.88       -0.54       
C           66.32       24.78       -1.07       
C           66.24       25.55       -2.21       
S           67.48       25.57       -0.01       
H           66.81       27.53       -2.83       
H           65.74       25.3        -3.11       
C           66.92       26.74       -2.09       
C           67.54       27.02       -0.93       
C           64.95       21.15       -0.79       
C           65.77       21.41       0.3         
S           65.08       22.52       -1.84       
H           67.11       23.1        1.15        
H           65.92       20.65       1.02        
C           66.4        22.71       0.37        
C           66.0        23.48       -0.73       
C           62.14       15.35       -2.14       
C           63.23       16.03       -2.65       
C           61.36       15.91       -1.09       
C           63.63       17.24       -2.1        
C           62.9        17.86       -1.03       
C           64.69       17.98       -2.65       
C           61.87       17.04       -0.46       
C           61.05       17.54       0.66        
N           61.49       18.74       1.27        
C           62.5        19.55       0.66        
C           65.47       17.59       -3.87       
N           65.01       16.39       -4.4        
C           63.96       15.57       -3.91       
O           66.34       18.25       -4.46       
O           63.63       14.58       -4.55       
O           60.11       16.88       1.21        
O           62.74       20.62       1.28        
C           60.89       19.14       2.57        
C           65.99       15.63       -5.26       
H           59.84       18.91       2.51        
H           60.91       20.23       2.54        
H           61.4158     18.66327    3.39726     
H           66.25       14.66       -4.87       
H           66.99       16.17       -5.17       
H           65.65889    15.55251    -6.2956     
H           60.5        15.36       -0.75       
H           65.8        19.78       -2.65       
C           64.93       19.28       -2.23       
C           63.3        19.06       -0.48       
C           64.34       19.85       -1.11       
C           61.29       11.47       -2.8        
C           60.13       12.21       -2.76       
S           62.62       12.51       -2.53       
H           59.47       14.32       -2.53       
H           59.2        11.7        -2.87       
C           60.29       13.62       -2.56       
C           61.62       13.93       -2.37       
C           61.39       7.58        -3.43       
C           62.67       8.03        -3.19       
S           60.34       8.99        -3.53       
H           63.65       9.96        -2.56       
H           63.58       7.37        -3.14       
C           62.77       9.46        -2.9        
C           61.54       10.11       -3.06       
C           61.05       3.73        -3.94       
C           59.81       4.31        -3.94       
S           62.21       5.0         -3.78       
H           58.78       6.21        -3.78       
H           58.94       3.68        -3.89       
C           59.73       5.67        -3.74       
C           60.98       6.2         -3.66       
C           62.2        -2.36       -6.22       
C           63.04       -1.46       -5.45       
C           61.02       -1.83       -6.73       
C           62.52       -0.14       -5.25       
C           61.27       0.36        -5.82       
C           63.12       0.78        -4.35       
C           60.53       -0.61       -6.61       
C           59.15       -0.41       -7.09       
N           58.77       0.93        -7.01       
C           59.43       1.92        -6.22       
C           64.37       0.43        -3.57       
N           64.86       -0.85       -3.91       
C           64.28       -1.84       -4.71       
O           65.0        1.3         -2.86       
O           64.73       -2.98       -4.75       
O           58.41       -1.28       -7.61       
O           58.84       2.98        -6.2        
C           57.41       1.33        -7.56       
C           66.16       -1.06       -3.47       
H           56.93       2.23        -7.17       
H           56.76       0.51        -7.42       
H           57.46537    1.46843     -8.63976    
H           66.32       -2.13       -3.39       
H           66.22       -0.75       -2.4        
H           66.89244    -0.58814    -4.12497    
H           60.34       -2.57       -7.3        
H           63.04       2.63        -3.33       
C           62.48       1.94        -4.05       
C           60.69       1.66        -5.51       
C           61.37       2.48        -4.63       
C           63.05       -5.84       -7.74       
C           61.94       -5.99       -7.04       
S           63.73       -4.28       -7.67       
H           60.8        -4.63       -5.69       
H           61.29       -6.79       -7.07       
C           61.61       -4.78       -6.38       
C           62.45       -3.74       -6.63       
C           65.07       -7.77       -10.46      
C           64.08       -8.6        -10.09      
S           65.19       -6.37       -9.49       
H           62.44       -8.54       -8.64       
H           63.85       -9.58       -10.65      
C           63.25       -8.0        -9.06       
C           63.7        -6.78       -8.68       
C           68.08       -7.76       -12.85      
C           67.77       -9.07       -12.57      
S           66.87       -6.73       -12.21      
H           66.35       -10.17      -11.11      
H           68.34       -9.88       -13.01      
C           66.64       -9.22       -11.6       
C           66.1        -8.02       -11.4       
C           72.51       -5.68       -17.25      
C           71.78       -6.85       -17.13      
C           72.19       -4.64       -16.42      
C           70.84       -7.0        -16.06      
C           70.69       -6.03       -15.06      
C           70.1        -8.19       -15.88      
C           71.41       -4.8        -15.31      
C           71.46       -3.74       -14.3       
N           70.59       -3.88       -13.18      
C           69.87       -5.04       -12.9       
C           70.18       -9.31       -16.82      
N           71.08       -9.1        -17.91      
C           71.89       -7.93       -18.15      
O           69.51       -10.32      -16.73      
O           72.35       -7.87       -19.22      
O           72.27       -2.84       -14.55      
O           69.21       -4.97       -11.86      
C           70.84       -2.92       -12.14      
C           71.26       -10.37      -18.79      
H           71.83       -3.1        -11.83      
H           70.18       -3.05       -11.32      
H           70.64844    -1.89125    -12.44508   
H           71.81       -10.13      -19.59      
H           70.29       -10.64      -19.0       
H           71.77795    -11.17246   -18.26475   
H           72.7        -3.7        -16.55      
H           68.63       -9.26       -14.81      
C           69.25       -8.33       -14.84      
C           69.86       -6.21       -13.88      
C           69.17       -7.38       -13.77      
C           74.91       -4.02       -19.93      
C           75.48       -5.19       -19.5       
S           73.33       -3.9        -19.22      
H           75.08       -6.78       -17.94      
H           76.46       -5.49       -19.75      
C           74.7        -5.87       -18.54      
C           73.48       -5.29       -18.25      
C           76.74       -1.75       -22.57      
C           75.78       -1.11       -21.89      
S           76.43       -3.43       -22.29      
H           74.43       -1.44       -20.14      
H           75.77       0.01        -21.93      
C           75.16       -1.77       -20.82      
C           75.47       -3.07       -20.88      
C           78.74       0.3         -25.29      
C           79.19       -1.01       -25.31      
S           77.48       0.46        -24.12      
H           78.77       -2.92       -24.26      
H           80.0        -1.42       -25.94      
C           78.52       -1.86       -24.39      
C           77.59       -1.17       -23.62      
C           81.42       4.79        -29.35      
C           80.28       3.96        -29.48      
C           82.25       4.54        -28.27      
C           79.93       3.09        -28.37      
C           80.81       2.97        -27.24      
C           78.71       2.4         -28.3       
C           82.0        3.72        -27.21      
C           83.01       3.58        -26.15      
N           82.68       2.82        -25.09      
C           81.46       2.09        -25.07      
C           77.65       2.66        -29.28      
N           78.07       3.44        -30.38      
C           79.25       4.09        -30.55      
O           76.51       2.21        -29.18      
O           79.42       4.76        -31.51      
O           84.04       4.26        -26.13      
O           81.38       1.25        -24.26      
C           83.06       3.24        -23.78      
C           77.19       3.52        -31.62      
H           82.39       3.01        -22.93      
H           83.12       4.35        -23.77      
H           84.02318    2.84914     -23.45196   
H           77.0        4.6         -31.87      
H           76.2        3.17        -31.36      
H           77.51425    2.9138      -32.46586   
H           83.08       5.27        -28.18      
H           77.39       1.02        -27.4       
C           78.37       1.54        -27.28      
C           80.44       2.1         -26.15      
C           79.31       1.29        -26.22      
C           83.21       7.84        -31.13      
C           83.16       6.76        -32.1       
S           82.36       7.37        -29.67      
H           82.22       4.71        -32.13      
H           83.67       6.64        -33.0       
C           82.37       5.68        -31.61      
C           82.01       5.78        -30.25      
C           85.53       10.93       -31.5       
C           84.9        11.01       -30.35      
S           84.91       9.61        -32.48      
H           83.46       9.87        -29.17      
H           85.26       11.65       -29.54      
C           83.9        10.04       -30.15      
C           83.8        9.16        -31.19      
C           88.23       13.04       -33.31      
C           88.04       13.58       -32.09      
S           87.22       11.67       -33.54      
H           86.73       13.15       -30.43      
H           88.64       14.46       -31.79      
C           87.1        12.83       -31.35      
C           86.55       11.83       -32.01      
C           92.66       14.35       -38.13      
C           92.71       14.23       -36.74      
C           91.39       14.19       -38.67      
C           91.55       14.05       -35.94      
C           90.25       13.86       -36.53      
C           91.64       13.96       -34.56      
C           90.21       13.98       -37.95      
C           88.98       13.94       -38.77      
N           87.81       13.85       -37.94      
C           87.81       13.72       -36.5       
C           92.91       14.13       -33.83      
N           94.04       14.13       -34.62      
C           94.0        14.36       -35.98      
O           92.97       13.77       -32.63      
O           95.06       14.26       -36.64      
O           88.97       14.07       -39.96      
O           86.66       13.6        -35.95      
C           86.56       14.17       -38.58      
C           95.25       14.65       -33.99      
H           86.78       15.06       -39.2       
H           85.82       14.58       -37.86      
H           86.20512    13.33739    -39.18739   
H           96.18       14.58       -34.59      
H           95.46       14.02       -33.14      
H           95.15889    15.70124    -33.71668   
H           91.27       14.39       -39.79      
H           90.63       13.38       -32.72      
C           90.53       13.63       -33.74      
C           89.1        13.66       -35.71      
C           89.22       13.51       -34.29      
C           95.56       15.48       -40.59      
C           94.97       14.35       -41.17      
S           94.71       15.98       -39.15      
H           93.17       13.08       -40.8       
H           95.23       14.07       -42.18      
C           93.84       13.88       -40.38      
C           93.64       14.6        -39.19      
C           97.65       18.7        -41.57      
C           98.17       17.65       -42.29      
S           96.38       18.17       -40.54      
H           97.66       15.48       -42.59      
H           98.96       17.73       -43.06      
C           97.45       16.38       -42.06      
C           96.52       16.51       -41.12      
C           98.88       22.28       -42.15      
C           97.77       22.42       -41.39      
S           99.05       20.69       -42.77      
H           96.54       21.09       -40.24      
H           97.43       23.36       -40.9       
C           97.31       21.18       -41.01      
C           97.83       20.11       -41.68      
C           102.83      27.4        -42.46      
C           102.5       26.57       -41.38      
C           102.32      27.14       -43.73      
C           101.65      25.51       -41.71      
C           101.1       25.26       -43.05      
C           101.21      24.65       -40.65      
C           101.53      26.07       -44.1       
C           101.09      25.85       -45.51      
N           100.19      24.79       -45.76      
C           99.73       23.99       -44.73      
C           101.77      24.75       -39.29      
N           102.65      25.83       -39.03      
C           103.1       26.75       -39.97      
O           101.55      23.86       -38.53      
O           104.05      27.42       -39.64      
O           101.36      26.75       -46.32      
O           99.01       23.02       -44.92      
C           99.15       25.22       -46.66      
C           102.99      26.05       -37.61      
H           98.88       26.29       -46.52      
H           98.24       24.63       -46.56      
H           99.36681    25.11509    -47.72306   
H           103.97      26.48       -37.43      
H           103.09      25.07       -37.13      
H           102.2254    26.52365    -36.99426   
H           102.54      27.92       -44.5       
H           99.85       23.12       -40.09      
C           100.3       23.68       -40.97      
C           100.15      24.26       -43.33      
C           99.78       23.43       -42.25      
C           104.75      30.88       -42.51      
C           105.59      29.93       -42.02      
S           103.24      30.19       -42.94      
H           105.54      27.79       -41.62      
H           106.63      30.15       -41.82      
C           105.01      28.66       -41.98      
C           103.69      28.61       -42.41      
C           105.98      34.47       -43.31      
C           104.62      34.54       -43.58      
S           106.5       32.91       -42.81      
H           103.01      33.05       -43.37      
H           104.04      35.37       -43.96      
C           104.05      33.27       -43.31      
C           104.92      32.3        -42.81      
C           109.52      35.78       -44.17      
C           108.55      36.72       -44.57      
S           108.64      34.47       -43.47      
H           106.42      37.2        -44.42      
H           108.82      37.53       -45.32      
C           107.2       36.53       -44.11      
C           107.11      35.3        -43.61      
C           116.07      36.06       -45.13      
C           115.16      34.98       -45.11      
C           115.5       37.33       -44.93      
C           113.68      35.26       -44.98      
C           113.17      36.54       -44.78      
C           112.71      34.27       -44.96      
C           114.16      37.58       -44.75      
C           113.83      39.02       -44.44      
N           112.43      39.29       -44.19      
C           111.48      38.27       -44.14      
C           113.14      32.91       -45.18      
N           114.47      32.59       -45.39      
C           115.58      33.52       -45.34      
O           112.24      32.1        -45.04      
O           116.58      33.23       -45.84      
O           114.64      39.82       -44.17      
O           110.36      38.64       -43.9       
C           111.96      40.63       -44.11      
C           114.94      31.19       -45.64      
H           112.21      40.98       -43.09      
H           110.92      40.78       -43.98      
H           112.3983    41.20744    -44.92398   
H           115.59      31.2        -46.52      
H           114.02      30.58       -45.83      
H           115.45017   30.72875    -44.79438   
H           116.15      38.15       -44.76      
H           110.73      33.75       -44.74      
C           111.45      34.55       -44.69      
C           111.84      36.84       -44.48      
C           110.98      35.82       -44.4       
C           119.95      36.48       -45.16      
C           119.63      35.35       -44.49      
S           118.57      37.22       -45.85      
H           117.92      34.33       -43.78      
H           120.35      34.75       -43.9       
C           118.25      35.15       -44.35      
C           117.51      36.13       -44.99      
C           123.41      37.45       -46.66      
C           123.59      37.23       -45.37      
S           121.73      37.31       -47.08      
H           122.42      36.57       -43.61      
H           124.64      37.26       -45.0       
C           122.44      36.84       -44.64      
C           121.33      36.98       -45.39      
C           125.35      37.97       -49.98      
C           126.15      38.4        -49.0       
S           123.88      37.39       -49.37      
H           126.16      38.61       -46.81      
H           127.17      38.76       -49.2       
C           125.6       38.38       -47.69      
C           124.36      37.75       -47.71      
C           127.09      38.22       -56.45      
C           126.23      39.02       -55.59      
C           127.63      37.09       -55.84      
C           126.02      38.68       -54.25      
C           126.65      37.56       -53.64      
C           125.22      39.44       -53.36      
C           127.46      36.77       -54.5       
C           128.03      35.53       -53.93      
N           127.88      35.25       -52.6       
C           127.02      35.97       -51.74      
C           124.38      40.57       -53.88      
N           124.71      40.93       -55.2       
C           125.57      40.31       -56.07      
O           123.49      41.18       -53.27      
O           125.88      40.84       -57.12      
O           128.63      34.75       -54.69      
O           127.05      35.66       -50.53      
C           128.04      33.85       -52.25      
C           123.89      42.01       -55.74      
H           127.83      33.28       -53.09      
H           127.2       33.56       -51.58      
H           129.05477   33.68904    -51.88608   
H           124.51      42.5        -56.53      
H           123.61      42.72       -55.0       
H           122.96896   41.60834    -56.16243   
H           128.1       36.35       -56.51      
H           124.5       39.87       -51.5       
C           125.08      39.15       -52.01      
C           126.44      37.23       -52.24      
C           125.75      38.03       -51.4       
C           127.66      37.77       -60.29      
C           126.4       38.22       -60.14      
S           128.39      37.49       -58.76      
H           125.18      38.93       -58.53      
H           125.79      38.6        -60.99      
C           126.09      38.53       -58.79      
C           126.99      38.05       -57.95      
C           130.03      36.65       -63.3       
C           128.71      36.47       -63.66      
S           130.06      37.26       -61.7       
H           126.7       36.77       -62.78      
H           128.44      36.28       -64.68      
C           127.77      36.88       -62.69      
C           128.33      37.43       -61.57      
H           91.78       30.23       6.19        
H           130.9       36.57       -64.03      
