512

C           67.39       15.24       37.79       
C           68.2        16.21       37.46       
S           65.77       15.47       37.16       
H           67.95       18.18       36.38       
H           69.19       16.22       37.71       
C           67.53       17.22       36.65       
C           66.25       16.98       36.41       
C           70.14       10.48       41.3        
C           69.7        10.58       40.02       
C           69.98       11.58       42.16       
C           69.1        11.75       39.57       
C           68.97       12.9        40.39       
C           68.61       11.83       38.29       
C           69.37       12.74       41.72       
C           69.24       13.83       42.74       
N           68.51       14.99       42.3        
C           68.11       15.13       40.94       
C           68.65       10.8        37.27       
N           69.16       9.59        37.78       
C           69.8        9.47        39.04       
O           68.29       10.87       36.12       
O           70.4        8.45        39.23       
O           69.59       13.61       43.93       
O           67.55       16.15       40.69       
C           68.19       16.04       43.29       
C           68.71       8.33        37.19       
H           67.13       16.26       43.25       
H           68.38       15.57       44.22       
H           68.79704    16.93676    43.16583    
H           69.5        7.56        37.46       
H           68.68       8.44        36.08       
H           67.64484    8.14079     37.32315    
H           70.38       11.54       43.13       
H           67.7        13.11       36.81       
C           68.07       13.04       37.85       
C           68.39       14.11       39.92       
C           67.87       14.17       38.62       
C           72.07       7.44        42.91       
C           72.91       8.2         42.14       
S           70.5        8.13        43.02       
H           72.71       9.92        40.79       
H           73.9        7.91        41.95       
C           72.29       9.35        41.56       
C           71.0        9.43        41.95       
C           71.92       4.21        44.99       
C           73.18       4.38        44.59       
S           71.0        5.54        44.52       
H           74.34       5.83        43.33       
H           74.0        3.61        44.72       
C           73.41       5.56        43.83       
C           72.28       6.23        43.62       
C           70.3        0.95        46.06       
C           70.08       1.77        47.15       
S           71.23       1.66        44.84       
H           70.69       3.8         47.66       
H           69.51       1.43        48.05       
C           70.7        3.01        46.93       
C           71.28       3.11        45.71       
C           67.01       -4.74       45.0        
C           66.65       -3.37       45.16       
C           68.33       -5.05       45.25       
C           67.62       -2.4        45.45       
C           68.98       -2.69       45.72       
C           67.28       -1.0        45.54       
C           69.27       -4.1        45.66       
C           70.62       -4.62       45.9        
N           71.58       -3.63       46.38       
C           71.31       -2.22       46.32       
C           65.93       -0.47       45.35       
N           64.97       -1.48       45.22       
C           65.2        -2.87       45.13       
O           65.67       0.75        45.46       
O           64.24       -3.63       44.92       
O           70.91       -5.79       45.79       
O           72.16       -1.41       46.62       
C           72.94       -3.99       46.12       
C           63.56       -1.07       45.09       
H           73.52       -3.24       45.76       
H           73.03       -4.8        45.38       
H           73.4611     -4.25779    47.03916    
H           62.98       -1.68       44.37       
H           63.62       -0.07       44.58       
H           63.03254    -0.99366    46.04082    
H           68.65       -6.1        45.29       
H           68.09       0.96        45.56       
C           68.28       -0.07       45.75       
C           69.96       -1.71       46.0        
C           69.6        -0.36       45.99       
C           64.55       -7.37       43.55       
C           65.23       -7.91       44.67       
S           65.25       -5.84       43.07       
H           66.62       -7.14       46.19       
H           64.94       -8.83       45.12       
C           66.14       -7.0        45.21       
C           66.17       -5.83       44.57       
C           61.84       -8.51       41.02       
C           62.57       -9.57       41.38       
S           62.44       -7.08       41.93       
H           64.19       -10.12      42.8        
H           62.32       -10.52      40.97       
C           63.55       -9.33       42.35       
C           63.68       -8.01       42.71       
C           58.99       -9.12       38.53       
C           59.23       -7.76       38.51       
S           59.82       -9.93       39.8        
H           60.55       -6.35       39.58       
H           58.78       -7.02       37.81       
C           60.23       -7.42       39.46       
C           60.77       -8.5        40.1        
C           54.62       -12.23      34.92       
C           55.05       -12.45      36.27       
C           55.2        -11.27      34.09       
C           56.02       -11.57      36.68       
C           56.65       -10.6       35.82       
C           56.45       -11.64      37.98       
C           56.3        -10.58      34.5        
C           56.95       -9.76       33.41       
N           57.91       -8.87       33.86       
C           58.33       -8.88       35.25       
C           56.11       -12.67      38.98       
N           55.28       -13.64      38.5        
C           54.68       -13.49      37.22       
O           56.71       -12.77      40.09       
O           53.82       -14.3       36.91       
O           56.67       -9.73       32.17       
O           59.29       -8.17       35.58       
C           58.87       -8.32       32.84       
C           55.15       -14.91      39.18       
H           59.29       -9.1        32.16       
H           59.67       -7.8        33.36       
H           58.38203    -7.49742    32.31717    
H           54.13       -15.22      39.33       
H           55.57       -14.81      40.18       
H           55.72761    -15.71302   38.72214    
H           54.95       -11.13      33.08       
H           57.63       -10.8       39.52       
C           57.39       -10.77      38.45       
C           57.65       -9.73       36.29       
C           57.99       -9.81       37.63       
C           52.37       -14.62      32.77       
C           51.62       -14.09      33.76       
S           54.03       -14.1       32.84       
H           51.91       -12.62      35.4        
H           50.6        -14.4       33.89       
C           52.29       -13.05      34.47       
C           53.62       -13.02      34.13       
C           52.13       -18.09      30.87       
C           50.94       -17.41      30.68       
S           53.22       -17.04      31.79       
H           49.92       -15.54      31.2        
H           50.16       -17.93      30.08       
C           50.85       -16.13      31.25       
C           52.02       -15.77      31.91       
C           53.72       -21.59      31.02       
C           52.38       -21.8       30.74       
S           54.05       -19.92      30.99       
H           50.52       -20.53      30.47       
H           51.9        -22.74      30.74       
C           51.61       -20.62      30.54       
C           52.39       -19.52      30.65       
C           58.35       -26.11      32.37       
C           57.17       -25.79      32.98       
C           58.73       -25.44      31.15       
C           56.4        -24.74      32.44       
C           56.77       -24.04      31.29       
C           55.12       -24.31      33.08       
C           57.95       -24.43      30.67       
C           58.39       -23.76      29.47       
N           57.6        -22.72      28.95       
C           56.38       -22.37      29.48       
C           54.68       -24.95      34.33       
N           55.58       -25.93      34.86       
C           56.73       -26.4       34.26       
O           53.71       -24.76      34.99       
O           57.27       -27.37      34.8        
O           59.37       -24.19      28.86       
O           55.68       -21.46      28.95       
C           57.99       -22.26      27.57       
C           55.46       -26.2       36.36       
H           57.36       -21.48      27.38       
H           57.86       -23.02      26.82       
H           58.98544    -21.81599   27.56284    
H           55.79       -27.17      36.66       
H           54.41       -26.24      36.68       
H           55.9392     -25.45617   36.99655    
H           59.66       -25.73      30.64       
H           53.53       -23.07      33.11       
C           54.34       -23.36      32.5        
C           55.85       -23.1       30.74       
C           54.65       -22.7       31.33       
C           61.63       -28.13      33.16       
C           61.11       -27.64      34.37       
S           60.56       -27.8       31.87       
H           59.49       -26.47      34.95       
H           61.53       -27.9       35.36       
C           59.89       -27.03      34.16       
C           59.52       -26.82      32.86       
C           65.0        -30.02      32.38       
C           65.06       -29.52      33.65       
S           63.51       -29.67      31.63       
H           63.65       -28.34      34.89       
H           65.92       -29.61      34.3        
C           63.85       -28.82      33.96       
C           62.93       -28.74      33.03       
C           68.09       -30.99      30.34       
C           67.28       -32.02      30.23       
S           67.47       -29.78      31.36       
H           65.3        -32.62      30.94       
H           67.56       -32.85      29.63       
C           66.09       -31.94      31.01       
C           66.02       -30.71      31.61       
C           73.54       -30.03      26.42       
C           72.2        -30.43      26.2        
C           73.92       -29.82      27.8        
C           71.3        -30.64      27.35       
C           71.63       -30.33      28.7        
C           69.95       -30.97      27.12       
C           72.99       -29.93      28.9        
C           73.56       -29.72      30.24       
N           72.6        -29.89      31.22       
C           71.25       -30.27      31.11       
C           69.34       -31.13      25.75       
N           70.31       -31.01      24.66       
C           71.65       -30.59      24.9        
O           68.18       -31.47      25.57       
O           72.31       -30.44      23.84       
O           74.76       -29.47      30.4        
O           70.62       -30.5       32.09       
C           73.14       -29.63      32.51       
C           69.78       -31.08      23.33       
H           74.0        -30.34      32.57       
H           72.45       -29.93      33.26       
H           73.36049    -28.57024   32.63802    
H           70.1        -30.25      22.68       
H           68.73       -30.88      23.38       
H           69.85281    -32.05564   22.84946    
H           74.95       -29.45      27.99       
H           68.0        -31.16      27.84       
C           69.03       -31.04      28.13       
C           70.69       -30.56      29.72       
C           69.36       -30.95      29.53       
C           76.52       -30.07      23.9        
C           76.73       -29.03      24.74       
S           75.06       -30.93      24.25       
H           75.56       -27.98      26.29       
H           77.53       -28.34      24.69       
C           75.6        -28.83      25.6        
C           74.68       -29.85      25.54       
C           79.42       -31.36      21.79       
C           78.59       -32.41      22.02       
S           78.85       -29.9       22.48       
H           76.69       -32.67      23.14       
H           78.89       -33.44      21.82       
C           77.43       -32.03      22.77       
C           77.4        -30.66      22.99       
C           82.75       -30.35      20.17       
C           82.44       -31.62      19.7        
S           81.54       -29.8       21.34       
H           80.71       -33.09      19.91       
H           82.94       -32.23      19.01       
C           81.21       -32.14      20.24       
C           80.68       -31.3       21.13       
C           87.66       -25.89      19.57       
C           86.69       -26.36      18.69       
C           87.73       -26.52      20.86       
C           85.78       -27.39      19.05       
C           85.9        -28.05      20.28       
C           84.72       -27.87      18.18       
C           86.9        -27.58      21.12       
C           87.04       -28.16      22.5        
N           86.22       -29.22      22.83       
C           85.19       -29.62      21.97       
C           84.48       -27.19      16.91       
N           85.42       -26.22      16.53       
C           86.52       -25.84      17.29       
O           83.53       -27.4       16.23       
O           87.22       -25.05      16.75       
O           87.89       -27.75      23.25       
O           84.55       -30.55      22.44       
C           86.19       -29.55      24.3        
C           85.0        -25.34      15.41       
H           85.16       -29.94      24.55       
H           86.25       -28.63      24.84       
H           87.00333    -30.21735   24.58501    
H           85.59       -24.42      15.38       
H           83.93       -25.17      15.37       
H           85.13289    -25.72391   14.39854    
H           88.29       -26.13      21.67       
H           83.1        -29.17      17.86       
C           83.84       -28.82      18.57       
C           84.96       -29.04      20.66       
C           83.92       -29.49      19.88       
C           89.32       -22.32      19.41       
C           90.26       -23.29      19.73       
S           87.71       -23.09      19.23       
H           90.33       -25.46      20.26       
H           91.34       -23.15      19.85       
C           89.71       -24.61      19.92       
C           88.41       -24.66      19.53       
C           90.98       -18.93      18.2        
C           89.59       -18.74      18.24       
S           91.33       -20.43      18.9        
H           87.72       -20.0       18.51       
H           89.12       -17.83      17.87       
C           88.85       -19.94      18.57       
C           89.65       -20.95      19.06       
C           93.87       -17.26      16.27       
C           93.06       -16.23      16.62       
S           93.48       -18.74      17.17       
H           91.18       -16.03      17.72       
H           93.17       -15.23      16.49       
C           92.0        -16.7       17.45       
C           91.99       -18.04      17.68       
C           99.3        -16.02      12.69       
C           98.63       -15.37      13.71       
C           98.75       -17.35      12.31       
C           97.49       -15.91      14.22       
C           96.88       -17.17      13.88       
C           96.79       -15.25      15.23       
C           97.61       -17.86      12.92       
C           97.25       -19.21      12.41       
N           96.13       -19.7       12.96       
C           95.27       -18.99      13.89       
C           97.24       -13.89      15.72       
N           98.42       -13.35      15.21       
C           99.15       -14.04      14.27       
O           96.73       -13.41      16.78       
O           100.21      -13.54      13.91       
O           97.92       -19.71      11.54       
O           94.27       -19.5       14.32       
C           95.37       -20.74      12.23       
C           98.59       -11.9       15.35       
H           95.3        -20.33      11.2        
H           94.31       -20.87      12.6        
H           95.84602    -21.72046   12.24421    
H           99.61       -11.7       15.2        
H           98.24       -11.62      16.35       
H           97.98449    -11.32333   14.65078    
H           99.29       -17.79      11.51       
H           95.28       -15.25      16.69       
C           95.64       -15.77      15.78       
C           95.67       -17.62      14.39       
C           95.06       -16.98      15.46       
C           102.71      -14.94      10.83       
C           101.79      -15.34      9.91        
S           102.09      -15.29      12.4        
H           99.74       -16.23      9.87        
H           101.98      -15.27      8.86        
C           100.57      -15.81      10.47       
C           100.44      -15.71      11.86       
C           106.34      -13.66      10.11       
C           106.33      -14.12      11.38       
S           104.83      -13.93      9.29        
H           104.8       -14.86      12.74       
H           107.14      -13.93      12.04       
C           105.1       -14.71      11.7        
C           104.11      -14.68      10.72       
C           109.34      -11.5       8.9         
C           108.19      -11.2       8.2         
S           108.95      -12.71      10.0        
H           106.2       -11.86      8.01        
H           108.23      -10.42      7.39        
C           107.13      -11.98      8.46        
C           107.29      -12.86      9.46        
C           114.31      -7.25       8.25        
C           114.25      -8.64       8.39        
C           113.17      -6.54       8.38        
C           112.99      -9.22       8.53        
C           111.78      -8.48       8.65        
C           112.83      -10.63      8.6         
C           111.93      -7.09       8.57        
C           110.78      -6.19       8.81        
N           109.49      -6.77       8.88        
C           109.33      -8.18       8.93        
C           114.0       -11.5       8.33        
N           115.25      -10.91      8.02        
C           115.47      -9.49       8.12        
O           113.81      -12.7       8.22        
O           116.54      -9.13       7.82        
O           110.96      -5.0        8.82        
O           108.22      -8.57       9.19        
C           108.39      -5.87       9.2         
C           116.4       -11.82      8.08        
H           108.61      -5.22       10.01       
H           107.56      -6.43       9.67        
H           108.02456   -5.34995    8.31451     
H           117.2       -11.48      7.51        
H           116.07      -12.64      7.49        
H           116.77267   -11.91844   9.09957     
H           113.29      -5.43       8.46        
H           111.47      -12.33      8.8         
C           111.6       -11.23      8.79        
C           110.49      -9.07       8.88        
C           110.42      -10.53      8.86        
C           117.41      -5.04       7.16        
C           117.75      -5.69       8.29        
S           115.73      -5.3        6.74        
H           116.8       -7.07       9.7         
H           118.78      -5.74       8.78        
C           116.6       -6.42       8.83        
C           115.45      -6.38       8.11        
C           118.52      -2.28       4.69        
C           119.56      -2.45       5.61        
S           117.17      -3.36       4.99        
H           120.02      -3.92       7.16        
H           120.47      -1.95       5.55        
C           119.31      -3.49       6.52        
C           118.07      -4.11       6.33        
C           117.73      -0.28       1.47        
C           119.04      -0.24       1.64        
S           117.02      -1.1        2.84        
H           120.68      -0.89       3.0         
H           119.69      0.21        0.93        
C           119.6       -0.74       2.82        
C           118.59      -1.32       3.59        
C           114.89      3.14        -3.54       
C           114.65      3.06        -2.1        
C           115.94      2.36        -4.09       
C           115.44      2.13        -1.39       
C           116.45      1.31        -1.91       
C           115.16      1.86        0.02        
C           116.72      1.48        -3.3        
C           117.78      0.78        -4.05       
N           118.56      -0.03       -3.22       
C           118.33      -0.34       -1.86       
C           114.09      2.56        0.72        
N           113.35      3.48        0.04        
C           113.55      3.73        -1.37       
O           113.86      2.39        1.91        
O           112.93      4.7         -1.84       
O           117.81      0.82        -5.29       
O           118.92      -1.23       -1.25       
C           119.75      -0.84       -3.69       
C           112.04      3.85        0.65        
H           119.49      -1.89       -3.79       
H           120.52      -0.91       -3.01       
H           120.3155    -0.40335    -4.51319    
H           111.74      4.82        0.24        
H           112.13      3.91        1.71        
H           111.19507   3.18814     0.45989     
H           115.92      2.23        -5.18       
H           115.68      0.86        1.86        
C           115.96      0.97        0.78        
C           117.26      0.42        -1.1        
C           117.02      0.29        0.28        
C           113.3       5.1         -6.52       
C           114.27      5.97        -5.92       
S           113.25      3.65        -5.65       
H           115.59      5.91        -4.08       
H           114.47      6.98        -6.35       
C           114.79      5.39        -4.71       
C           114.36      4.11        -4.47       
C           112.2       5.18        -10.25      
C           111.45      4.21        -9.66       
S           113.02      6.11        -9.07       
H           111.74      2.96        -7.86       
H           110.86      3.45        -10.16      
C           111.83      3.95        -8.34       
C           112.59      5.01        -7.78       
C           111.77      5.69        -14.17      
C           112.67      6.59        -13.67      
S           111.27      4.72        -12.87      
H           113.51      7.19        -11.73      
H           113.2       7.32        -14.36      
C           112.87      6.51        -12.25      
C           112.26      5.52        -11.68      
C           109.73      6.41        -20.5       
C           111.0       6.34        -19.84      
C           108.62      6.33        -19.59      
C           111.12      6.03        -18.47      
C           109.92      5.93        -17.63      
C           112.34      5.91        -17.8       
C           108.67      6.13        -18.22      
C           107.43      6.26        -17.42      
N           107.53      6.11        -16.04      
C           108.81      5.86        -15.39      
C           113.64      5.95        -18.58      
N           113.5       6.08        -20.05      
C           112.27      6.34        -20.66      
O           114.69      5.78        -18.06      
O           112.24      6.44        -21.9       
O           106.46      6.64        -18.01      
O           108.79      5.85        -14.16      
C           106.28      6.62        -15.24      
C           114.63      6.65        -20.8       
H           106.23      7.68        -15.37      
H           106.41      6.3         -14.21      
H           105.38069   6.10009     -15.57021   
H           114.59      6.25        -21.82      
H           115.51      6.27        -20.33      
H           114.65158   7.73636     -20.71367   
H           107.67      6.62        -19.96      
H           113.43      5.78        -16.03      
C           112.43      5.95        -16.45      
C           110.07      5.8         -16.19      
C           111.34      5.79        -15.61      
C           108.88      9.14        -23.01      
C           108.12      8.09        -23.32      
S           109.95      8.85        -21.71      
H           107.63      6.23        -22.32      
H           107.33      8.12        -24.09      
C           108.29      7.01        -22.42      
C           109.43      7.18        -21.68      
C           107.86      12.57       -24.7       
C           109.18      12.63       -24.39      
S           107.25      11.06       -24.25      
H           110.75      11.45       -23.34      
H           109.72      13.51       -24.66      
C           109.73      11.49       -23.67      
C           108.79      10.5        -23.57      
H           65.45       17.74       36.03       
H           107.47      13.26       -25.5       
