512

C           80.11       41.76       35.68       
C           79.98       40.66       34.81       
S           81.3        42.92       35.09       
H           80.82       40.14       32.89       
H           79.23       39.89       34.91       
C           80.79       40.88       33.64       
C           81.66       41.96       33.71       
C           76.25       42.32       41.05       
C           76.87       43.24       40.19       
C           76.42       40.96       40.75       
C           77.7        42.81       39.1        
C           77.92       41.36       38.89       
C           78.43       43.68       38.23       
C           77.27       40.45       39.73       
C           77.35       38.99       39.65       
N           78.32       38.56       38.67       
C           79.09       39.49       37.93       
C           78.28       45.19       38.48       
N           77.47       45.57       39.54       
C           76.76       44.76       40.47       
O           78.99       45.99       37.85       
O           76.09       45.26       41.38       
O           76.49       38.28       40.24       
O           80.06       39.02       37.38       
C           78.42       37.1        38.35       
C           77.12       47.05       39.58       
H           77.47       36.63       38.57       
H           78.57       36.93       37.25       
H           79.21643    36.57379    38.87621    
H           76.04       47.2        39.69       
H           77.38       47.45       38.66       
H           77.72625    47.56669    40.32404    
H           75.91       40.2        41.36       
H           79.47       43.94       36.48       
C           79.13       43.19       37.16       
C           78.81       40.92       37.88       
C           79.46       41.78       37.08       
C           73.36       43.3        43.58       
C           74.25       42.47       44.23       
S           73.77       43.47       41.92       
H           76.23       41.64       43.71       
H           74.19       42.16       45.24       
C           75.36       42.09       43.33       
C           75.3        42.62       42.13       
C           69.79       44.46       44.65       
C           70.27       45.48       43.91       
S           70.94       43.19       44.93       
H           72.15       45.77       42.85       
H           69.74       46.39       43.57       
C           71.56       45.12       43.46       
C           72.16       44.02       43.99       
C           66.08       44.53       45.35       
C           66.6        43.46       46.04       
S           67.32       45.51       44.64       
H           68.59       42.42       46.17       
H           66.01       42.74       46.56       
C           67.99       43.27       45.79       
C           68.51       44.34       45.22       
C           59.53       45.37       45.95       
C           60.42       44.98       44.91       
C           60.18       45.63       47.14       
C           61.83       44.9        45.02       
C           62.4        45.28       46.24       
C           62.7        44.55       43.98       
C           61.57       45.61       47.31       
C           62.08       45.77       48.73       
N           63.48       45.79       48.92       
C           64.31       45.51       47.89       
C           62.22       44.08       42.71       
N           60.79       44.15       42.5        
C           59.9        44.58       43.57       
O           63.05       43.44       41.94       
O           58.67       44.57       43.41       
O           61.28       46.0        49.6        
O           65.52       45.48       48.15       
C           63.97       46.45       50.11       
C           60.21       43.91       41.19       
H           63.62       47.5        50.21       
H           65.03       46.59       50.02       
H           63.7956     45.87099    51.01688    
H           59.17       43.7        41.31       
H           60.81       43.08       40.81       
H           60.30868    44.76989    40.52746    
H           59.6        45.81       47.98       
H           64.76       44.3        43.46       
C           64.09       44.56       44.21       
C           63.83       45.18       46.48       
C           64.68       44.79       45.44       
C           55.65       44.48       46.5        
C           55.92       45.78       46.88       
S           57.17       43.77       46.06       
H           57.55       47.26       46.91       
H           55.21       46.46       47.28       
C           57.25       46.22       46.7        
C           58.05       45.25       46.09       
C           52.24       42.59       46.8        
C           53.18       41.73       46.39       
S           52.91       44.16       46.97       
H           55.34       41.79       45.68       
H           53.02       40.69       46.22       
C           54.43       42.35       46.05       
C           54.52       43.65       46.5        
C           48.39       41.7        46.38       
C           48.63       42.37       47.61       
S           49.92       41.56       45.61       
H           50.23       43.29       48.79       
H           47.85       42.56       48.3        
C           49.93       42.8        47.86       
C           50.78       42.38       46.92       
C           43.02       38.68       44.2        
C           43.69       38.73       45.46       
C           43.57       39.42       43.12       
C           44.82       39.51       45.67       
C           45.35       40.23       44.6        
C           45.52       39.58       46.92       
C           44.66       40.22       43.39       
C           45.15       40.96       42.21       
N           46.28       41.74       42.38       
C           46.92       41.88       43.64       
C           44.9        38.9        48.13       
N           43.75       38.21       47.92       
C           43.17       38.01       46.67       
O           45.12       39.28       49.27       
O           42.07       37.41       46.59       
O           44.49       40.86       41.14       
O           47.81       42.75       43.73       
C           46.91       42.35       41.16       
C           43.12       37.37       48.96       
H           47.21       41.58       40.48       
H           47.79       42.85       41.45       
H           46.23582    43.11025    40.76553    
H           42.02       37.41       48.88       
H           43.25       37.91       49.91       
H           43.45574    36.3342     49.01       
H           43.21       39.34       42.1        
H           47.12       40.06       48.03       
C           46.68       40.23       47.06       
C           46.54       41.06       44.81       
C           47.14       41.08       46.04       
C           41.43       35.4        42.75       
C           40.82       36.46       42.23       
S           42.58       35.89       43.93       
H           41.11       38.74       42.41       
H           40.14       36.35       41.38       
C           41.35       37.73       42.75       
C           42.17       37.58       43.77       
C           42.63       31.83       41.81       
C           41.29       31.8        41.57       
S           43.1        33.43       42.45       
H           39.64       33.23       41.67       
H           40.77       30.96       41.18       
C           40.67       33.06       41.87       
C           41.51       34.02       42.42       
C           45.97       30.01       41.09       
C           45.03       29.3        40.48       
S           45.25       31.33       41.89       
H           42.96       29.49       39.92       
H           45.22       28.39       39.92       
C           43.74       29.88       40.59       
C           43.66       30.9        41.49       
C           52.0        27.33       42.08       
C           51.24       28.34       42.76       
C           51.57       27.0        40.8        
C           49.99       28.82       42.17       
C           49.48       28.36       40.97       
C           49.23       29.83       42.79       
C           50.34       27.38       40.26       
C           50.0        26.76       38.98       
N           48.74       27.1        38.51       
C           47.9        28.1        39.08       
C           49.67       30.49       44.07       
N           50.76       29.86       44.65       
C           51.58       28.8        44.15       
O           49.08       31.46       44.49       
O           52.43       28.38       44.88       
O           50.69       25.94       38.38       
O           46.89       28.37       38.45       
C           48.4        26.77       37.08       
C           51.29       30.36       45.93       
H           49.27       27.02       36.35       
H           47.63       27.4        36.77       
H           48.02779    25.7517     36.96764    
H           51.53       29.62       46.65       
H           50.51       31.0        46.43       
H           52.12624    31.04741    45.80244    
H           52.24       26.42       40.13       
H           47.45       30.74       42.89       
C           48.02       30.2        42.23       
C           48.25       28.72       40.4        
C           47.46       29.68       41.09       
C           55.85       26.64       42.69       
C           55.32       25.51       42.12       
S           54.74       27.91       42.91       
H           53.25       24.91       41.66       
H           55.9        24.62       41.94       
C           53.89       25.73       41.91       
C           53.41       26.96       42.28       
C           59.74       26.96       42.88       
C           59.24       27.77       43.88       
S           58.47       26.01       42.25       
H           57.19       28.55       44.3        
H           59.85       28.47       44.43       
C           57.8        27.81       43.77       
C           57.2        26.91       43.0        
C           63.26       27.62       41.47       
C           62.82       26.45       40.86       
S           62.06       28.19       42.52       
H           61.02       25.13       40.85       
H           63.44       25.97       40.09       
C           61.51       25.98       41.33       
C           61.06       26.82       42.27       
C           68.32       31.32       39.33       
C           66.95       31.53       39.56       
C           68.81       30.03       39.61       
C           66.16       30.46       40.05       
C           66.65       29.14       40.27       
C           64.8        30.8        40.36       
C           67.99       28.97       40.08       
C           68.59       27.59       40.13       
N           67.72       26.56       40.42       
C           66.36       26.7        40.72       
C           64.08       32.07       39.99       
N           64.9        33.03       39.38       
C           66.31       32.9        39.33       
O           62.87       32.18       40.08       
O           66.89       33.83       38.85       
O           69.88       27.41       40.15       
O           65.68       25.69       40.95       
C           68.29       25.2        40.68       
C           64.34       33.67       38.18       
H           67.62       24.56       41.35       
H           69.33       25.41       41.12       
H           68.27584    24.60527    39.76666    
H           64.86       34.61       37.93       
H           63.36       33.97       38.59       
H           64.33302    33.03514    37.29399    
H           69.89       29.77       39.54       
H           62.96       29.91       40.79       
C           64.03       29.79       40.8        
C           65.75       28.07       40.68       
C           64.46       28.45       41.11       
C           70.78       33.68       37.43       
C           70.57       34.2        38.68       
S           70.01       32.16       37.37       
H           69.46       33.65       40.52       
H           70.92       35.18       39.06       
C           69.85       33.38       39.53       
C           69.42       32.2        38.97       
C           73.43       33.7        34.58       
C           73.1        35.06       34.79       
S           72.21       32.73       35.37       
H           71.69       36.13       36.19       
H           73.62       35.89       34.34       
C           72.16       35.24       35.85       
C           71.66       34.03       36.33       
C           75.74       32.6        31.62       
C           75.84       31.74       32.62       
S           74.71       33.88       32.04       
H           75.16       31.54       34.71       
H           76.54       30.95       32.56       
C           75.04       32.04       33.73       
C           74.23       33.18       33.55       
C           79.67       30.7        26.82       
C           79.72       31.78       27.71       
C           78.49       29.99       26.69       
C           78.66       32.03       28.51       
C           77.51       31.12       28.6        
C           78.69       33.14       29.43       
C           77.51       30.04       27.64       
C           76.4        29.04       27.51       
N           75.31       29.24       28.39       
C           75.27       30.34       29.34       
C           79.86       33.99       29.56       
N           80.96       33.68       28.76       
C           80.92       32.62       27.84       
O           79.93       34.7        30.51       
O           81.95       32.43       27.28       
O           76.42       28.14       26.64       
O           74.32       30.5        30.0        
C           74.23       28.25       28.46       
C           82.17       34.49       28.97       
H           73.72       28.1        27.49       
H           73.48       28.52       29.16       
H           74.61197    27.26264    28.71945    
H           83.03       33.82       29.1        
H           82.09       34.97       29.94       
H           82.40775    35.18838    28.1676     
H           78.38       29.16       25.95       
H           77.61       34.22       30.83       
C           77.61       33.26       30.25       
C           76.42       31.36       29.48       
C           76.53       32.39       30.41       
C           81.98       29.85       23.81       
C           81.91       28.73       24.63       
S           81.21       31.22       24.54       
H           80.69       28.14       26.28       
H           82.34       27.79       24.34       
C           81.09       28.94       25.79       
C           80.73       30.25       25.95       
C           84.15       29.52       20.63       
C           83.74       30.81       20.74       
S           83.4        28.56       21.9        
H           82.9        32.08       22.32       
H           84.19       31.48       20.09       
C           83.13       31.09       21.98       
C           82.69       30.01       22.61       
C           86.73       28.1        17.94       
C           85.79       27.16       18.23       
S           86.25       29.57       18.78       
H           84.21       26.76       19.56       
H           85.82       26.16       17.8        
C           84.84       27.51       19.22       
C           84.96       28.82       19.64       
C           91.05       27.76       12.94       
C           89.76       27.25       13.05       
C           91.63       28.53       13.91       
C           89.11       27.43       14.29       
C           89.72       28.14       15.38       
C           87.77       27.05       14.49       
C           91.03       28.69       15.18       
C           91.76       29.44       16.21       
N           91.07       29.69       17.34       
C           89.74       29.28       17.64       
C           87.03       26.29       13.46       
N           87.66       26.23       12.2        
C           88.98       26.63       11.95       
O           85.87       25.82       13.57       
O           89.37       26.59       10.81       
O           92.79       29.94       15.85       
O           89.19       29.42       18.71       
C           91.53       30.81       18.18       
C           87.16       25.36       11.17       
H           90.66       31.27       18.78       
H           91.81       31.59       17.43       
H           92.32219    30.52707    18.87317    
H           87.49       25.67       10.2        
H           86.05       25.53       11.26       
H           87.43504    24.32174    11.35565    
H           92.6        28.98       13.7        
H           86.14       26.9        15.79       
C           87.11       27.25       15.72       
C           89.03       28.44       16.62       
C           87.73       27.94       16.85       
C           93.42       27.07       9.88        
C           93.34       28.42       10.09       
S           92.52       26.22       11.05       
H           92.47       29.74       11.54       
H           93.78       29.18       9.5         
C           92.65       28.71       11.26       
C           91.93       27.68       11.77       
C           95.87       25.49       7.14        
C           95.23       24.5        7.84        
S           95.5        26.99       7.94        
H           93.53       24.29       9.26        
H           95.54       23.45       7.71        
C           94.22       24.95       8.72        
C           94.23       26.27       8.87        
C           99.53       24.98       6.17        
C           98.89       25.7        5.15        
S           98.38       24.6        7.41        
H           96.88       26.32       4.55        
H           99.44       26.13       4.3         
C           97.52       25.83       5.3         
C           97.09       25.35       6.49        
C           106.02      23.38       6.08        
C           105.07      23.65       7.09        
C           105.56      23.35       4.76        
C           103.75      23.97       6.7         
C           103.34      23.92       5.4         
C           102.77      24.26       7.65        
C           104.26      23.7        4.41        
C           103.87      23.54       2.98        
N           102.52      23.78       2.68        
C           101.57      24.12       3.63        
C           103.07      24.46       9.11        
N           104.45      24.23       9.45        
C           105.31      23.61       8.58        
O           102.29      24.88       9.98        
O           106.35      23.09       9.07        
O           104.7       23.38       2.17        
O           100.38      24.14       3.37        
C           102.1       23.61       1.28        
C           104.97      24.95       10.57       
H           101.07      23.65       1.09        
H           102.47      22.63       0.91        
H           102.5236    24.40164    0.66196     
H           105.61      24.41       11.1        
H           104.21      25.23       11.2        
H           105.47684   25.83697    10.18987    
H           106.28      23.05       4.0         
H           100.81      24.95       8.11        
C           101.47      24.52       7.34        
C           101.91      24.17       5.07        
C           100.93      24.4        6.06        
C           109.99      22.78       6.29        
C           109.36      21.75       6.98        
S           108.84      23.92       5.72        
H           107.29      21.19       7.41        
H           109.9       20.91       7.43        
C           107.94      21.94       6.96        
C           107.48      23.0        6.22        
C           113.4       23.85       4.75        
C           113.41      22.48       4.91        
S           111.83      24.5        5.27        
H           112.05      20.87       5.8         
H           114.28      21.91       4.85        
C           112.19      21.91       5.45        
C           111.27      22.9        5.78        
C           115.54      26.9        3.4         
C           115.98      25.73       2.78        
S           114.23      26.39       4.52        
H           115.58      23.47       2.75        
H           116.66      25.72       1.93        
C           115.36      24.48       3.24        
C           114.41      24.7        4.2         
C           117.41      33.1        2.23        
C           117.11      32.06       1.47        
C           117.34      32.91       3.63        
C           116.75      30.8        1.99        
C           116.67      30.6        3.43        
C           116.37      29.75       1.21        
C           117.06      31.69       4.21        
C           116.91      31.62       5.72        
N           116.64      30.38       6.32        
C           116.41      29.27       5.47        
C           116.21      29.88       -0.24       
N           116.68      31.07       -0.79       
C           117.16      32.16       -0.01       
O           115.86      28.9        -0.95       
O           117.54      33.18       -0.59       
O           117.32      32.56       6.45        
O           116.15      28.2        5.97        
C           117.5       30.0        7.43        
C           116.97      31.09       -2.26       
H           118.48      30.52       7.42        
H           117.83      29.0        7.2         
H           116.92418   30.04976    8.35415     
H           116.58      32.1        -2.58       
H           116.43      30.23       -2.76       
H           118.02364   30.99745    -2.52341    
H           117.62      33.67       4.32        
H           116.0       27.7        0.95        
C           116.09      28.52       1.73        
C           116.29      29.4        3.96        
C           116.03      28.27       3.14        
C           119.19      36.48       1.11        
C           118.03      36.78       1.76        
S           119.43      34.81       1.11        
H           116.4       35.7        2.77        
H           117.58      37.76       1.81        
C           117.37      35.63       2.3         
C           117.95      34.47       1.95        
C           121.94      38.27       -1.1        
C           121.27      39.28       -0.37       
S           121.2       36.7        -0.69       
H           119.56      39.29       1.1         
H           121.51      40.33       -0.37       
C           120.2       38.72       0.43        
C           120.12      37.36       0.46        
C           124.72      39.13       -3.64       
C           124.64      37.78       -3.54       
S           123.6       39.84       -2.55       
H           123.34      36.25       -2.75       
H           125.24      37.1        -4.14       
C           123.53      37.3        -2.82       
C           122.91      38.31       -2.15       
C           129.25      41.97       -7.51       
C           127.97      42.3        -7.23       
C           129.87      40.97       -6.71       
C           127.28      41.54       -6.25       
C           127.83      40.47       -5.49       
C           125.94      41.82       -5.9        
C           129.21      40.18       -5.74       
C           129.99      39.15       -5.01       
N           129.28      38.37       -4.08       
C           127.93      38.59       -3.74       
C           125.17      42.88       -6.52       
N           125.82      43.56       -7.57       
C           127.19      43.31       -7.96       
O           124.01      43.19       -6.17       
O           127.55      43.92       -8.97       
O           131.15      38.85       -5.39       
O           127.4       37.9        -2.93       
C           129.98      37.16       -3.48       
C           124.94      44.28       -8.49       
H           130.33      36.5        -4.26       
H           129.32      36.62       -2.8        
H           130.78446   37.54787    -2.8551     
H           125.46      45.06       -8.96       
H           124.15      44.83       -7.96       
H           124.5377    43.68373    -9.30897    
H           130.85      40.72       -6.89       
H           124.18      41.06       -5.12       
C           125.25      40.94       -5.08       
C           127.07      39.56       -4.58       
C           125.76      39.81       -4.38       
C           132.27      43.62       -9.54       
C           131.48      44.59       -8.97       
S           131.44      42.17       -9.35       
H           129.79      44.77       -7.57       
H           131.66      45.67       -9.05       
C           130.41      44.14       -8.18       
C           130.3       42.8        -8.24       
C           135.43      43.4        -11.94      
C           135.18      44.71       -11.54      
S           134.25      42.39       -11.16      
H           133.6       45.83       -10.47      
H           135.71      45.55       -11.96      
C           134.06      44.86       -10.68      
C           133.47      43.72       -10.37      
H           82.64       41.96       33.25       
H           136.25      43.14       -12.68      
