512

C           78.8        25.61       43.85       
C           77.93       24.56       43.52       
S           80.42       24.96       44.13       
H           77.94       22.32       43.18       
H           76.86       24.69       43.4        
C           78.54       23.23       43.48       
C           79.83       23.3        43.93       
C           76.9        32.01       44.03       
C           77.96       31.29       43.41       
C           76.1        31.24       44.89       
C           78.09       29.83       43.5        
C           77.24       29.08       44.38       
C           79.2        29.09       42.9        
C           76.21       29.82       44.99       
C           75.18       29.19       45.82       
N           75.38       27.88       46.05       
C           76.37       27.08       45.5        
C           80.11       29.8        42.01       
N           79.99       31.2        41.93       
C           79.08       32.0        42.69       
O           80.99       29.19       41.49       
O           79.0        33.17       42.42       
O           74.28       29.79       46.3        
O           76.46       25.96       45.82       
C           74.41       27.26       46.94       
C           80.92       31.81       40.96       
H           73.41       27.55       46.8        
H           74.33       26.17       46.83       
H           74.60573    27.44874    47.99554    
H           80.41       32.76       40.58       
H           81.03       31.09       40.14       
H           81.79146    32.16682    41.50895    
H           75.25       31.71       45.44       
H           80.16       27.27       42.52       
C           79.28       27.71       43.0        
C           77.39       27.71       44.55       
C           78.43       27.05       43.89       
C           75.55       35.78       44.04       
C           76.84       35.77       44.4        
S           75.01       34.14       43.94       
H           78.59       34.35       44.39       
H           77.35       36.64       44.61       
C           77.49       34.52       44.33       
C           76.62       33.48       44.19       
C           72.73       38.25       43.26       
C           73.82       39.04       43.34       
S           73.03       36.6        43.63       
H           75.92       38.64       43.68       
H           73.85       40.06       43.31       
C           74.96       38.25       43.64       
C           74.72       36.89       43.78       
C           68.9        38.34       42.83       
C           69.34       39.62       42.44       
S           70.27       37.34       43.24       
H           71.27       40.75       42.29       
H           68.69       40.37       41.98       
C           70.76       39.76       42.54       
C           71.37       38.59       42.92       
C           62.67       36.23       42.49       
C           63.44       36.99       41.63       
C           63.21       35.87       43.73       
C           64.81       37.38       42.01       
C           65.29       37.14       43.32       
C           65.66       38.03       41.09       
C           64.45       36.37       44.16       
C           64.76       36.12       45.62       
N           66.04       36.58       45.92       
C           66.97       37.26       45.1        
C           65.16       38.25       39.75       
N           63.81       38.22       39.57       
C           62.89       37.55       40.35       
O           65.97       38.72       38.89       
O           61.75       37.7        40.13       
O           64.02       35.46       46.38       
O           67.98       37.59       45.56       
C           66.53       36.09       47.19       
C           63.23       38.93       38.39       
H           67.45       36.58       47.5        
H           66.64       35.06       47.06       
H           65.93436    36.35946    48.06219    
H           62.29       38.5        38.03       
H           64.02       38.89       37.61       
H           63.08364    39.96146    38.71059    
H           62.69       35.2        44.45       
H           67.65       38.58       40.65       
C           66.99       38.27       41.43       
C           66.59       37.51       43.69       
C           67.51       38.01       42.72       
C           59.39       34.14       41.5        
C           59.22       34.68       42.74       
S           60.86       34.85       40.82       
H           60.44       35.81       44.15       
H           58.38       34.53       43.38       
C           60.36       35.39       43.19       
C           61.31       35.66       42.24       
C           57.51       32.7        38.54       
C           56.79       32.41       39.64       
S           59.03       33.36       38.92       
H           56.98       32.94       41.73       
H           55.77       32.0        39.64       
C           57.4        32.91       40.78       
C           58.57       33.41       40.6        
C           57.64       30.73       35.21       
C           56.34       30.96       35.53       
S           58.61       31.42       36.42       
H           55.1        32.01       36.92       
H           55.47       30.51       34.97       
C           56.09       31.86       36.57       
C           57.27       32.23       37.16       
C           60.29       26.1        31.33       
C           60.3        27.51       31.27       
C           59.37       25.48       32.17       
C           59.43       28.21       32.17       
C           58.55       27.54       33.1        
C           59.49       29.64       32.16       
C           58.56       26.16       33.06       
C           57.73       25.39       34.05       
N           56.9        26.14       34.88       
C           56.9        27.55       34.9        
C           60.19       30.37       31.1        
N           61.15       29.65       30.31       
C           61.22       28.22       30.32       
O           60.1        31.61       30.99       
O           61.97       27.71       29.53       
O           57.74       24.18       34.04       
O           56.0        28.01       35.6        
C           55.57       25.52       34.99       
C           61.62       30.25       29.04       
H           55.53       24.95       34.1        
H           54.83       26.22       35.12       
H           55.54249    24.8873     35.87715    
H           62.61       29.85       28.81       
H           61.74       31.35       29.27       
H           60.86297    30.15187    28.26194    
H           59.37       24.41       32.11       
H           58.92       31.44       33.1        
C           58.82       30.32       33.09       
C           57.83       28.35       34.07       
C           58.06       29.74       34.2        
C           62.66       23.56       29.53       
C           63.39       24.27       30.42       
S           61.01       24.07       29.58       
H           62.89       25.73       31.92       
H           64.43       24.11       30.67       
C           62.57       25.16       31.2        
C           61.28       25.12       30.84       
C           64.23       20.79       27.26       
C           62.98       21.03       26.73       
S           64.51       21.71       28.74       
H           61.22       22.34       27.2        
H           62.55       20.39       26.01       
C           62.27       22.07       27.45       
C           63.02       22.59       28.55       
C           66.78       17.83       27.06       
C           66.32       18.03       25.8        
S           65.96       18.91       28.16       
H           64.8        19.4        24.78       
H           66.61       17.52       24.9        
C           65.39       19.16       25.69       
C           65.14       19.76       26.87       
C           71.01       13.05       28.41       
C           71.27       14.41       28.09       
C           69.76       12.59       28.55       
C           70.11       15.18       27.78       
C           68.81       14.69       27.91       
C           70.26       16.55       27.4        
C           68.64       13.41       28.44       
C           67.34       12.75       28.6        
N           66.21       13.54       28.32       
C           66.38       14.82       27.87       
C           71.68       17.2        27.19       
N           72.8        16.37       27.53       
C           72.62       15.05       27.94       
O           71.81       18.37       26.94       
O           73.67       14.46       28.19       
O           67.24       11.66       29.07       
O           65.26       15.29       27.67       
C           65.08       13.34       29.25       
C           74.15       16.9        27.19       
H           64.69       14.28       29.49       
H           65.36       12.94       30.24       
H           64.29749    12.74956    28.77338    
H           74.96       16.57       27.91       
H           74.09       18.01       27.24       
H           74.38693    16.5123     26.19921    
H           69.63       11.57       28.91       
H           69.34       18.44       26.94       
C           69.18       17.41       27.24       
C           67.72       15.48       27.62       
C           67.86       16.82       27.26       
C           73.42       9.98        28.43       
C           73.83       10.77       29.45       
S           72.06       10.61       27.6        
H           73.12       12.64       30.28       
H           74.61       10.51       30.15       
C           72.99       11.91       29.52       
C           71.93       11.96       28.66       
C           75.56       6.72        27.82       
C           74.72       6.9         26.73       
S           75.21       7.96        28.97       
H           73.24       8.36        26.03       
H           74.62       6.11        26.01       
C           73.91       8.07        26.84       
C           74.03       8.8         27.95       
C           77.83       3.43        28.23       
C           78.5        4.55        28.63       
S           76.26       3.96        27.67       
H           78.16       6.74        28.95       
H           79.49       4.5         29.05       
C           77.8        5.79        28.63       
C           76.56       5.64        28.07       
C           79.77       -2.67       27.36       
C           80.46       -1.5        27.3        
C           78.5        -2.69       27.93       
C           79.83       -0.31       27.72       
C           78.49       -0.35       28.23       
C           80.42       0.98        27.51       
C           77.89       -1.6        28.4        
C           76.52       -1.82       29.01       
N           75.91       -0.64       29.39       
C           76.37       0.64        29.16       
C           81.85       1.14        27.05       
N           82.46       -0.06       26.73       
C           81.83       -1.33       26.72       
O           82.43       2.23        27.01       
O           82.52       -2.24       26.26       
O           76.04       -2.94       29.22       
O           75.6        1.54        29.47       
C           74.66       -0.73       30.19       
C           83.63       -0.09       25.82       
H           74.15       -1.61       29.8        
H           74.0        0.12        30.07       
H           74.81305    -0.94566    31.24743    
H           84.25       -1.01       25.75       
H           84.36       0.6         26.19       
H           83.38714    0.28858     24.82713    
H           77.95       -3.63       28.04       
H           79.96       2.97        27.38       
C           79.57       2.02        27.76       
C           77.7        0.85        28.55       
C           78.29       2.07        28.32       
C           81.43       -5.79       25.81       
C           80.48       -5.34       24.94       
S           81.42       -4.82       27.25       
H           79.06       -3.61       24.85       
H           80.26       -5.8        23.96       
C           79.7        -4.29       25.5        
C           80.1        -3.93       26.7        
C           84.75       -7.77       25.01       
C           84.08       -7.66       23.85       
S           83.83       -7.19       26.33       
H           82.16       -6.87       23.11       
H           84.51       -8.02       22.89       
C           82.79       -7.04       24.03       
C           82.52       -6.64       25.36       
C           88.51       -8.71       24.8        
C           88.11       -8.75       26.09       
S           87.19       -8.17       23.82       
H           86.31       -8.53       27.29       
H           88.73       -9.11       26.87       
C           86.72       -8.47       26.36       
C           86.15       -8.09       25.22       
C           94.55       -9.62       22.32       
C           93.26       -9.98       21.89       
C           94.67       -9.08       23.58       
C           92.16       -9.65       22.77       
C           92.3        -8.92       23.98       
C           90.89       -10.0       22.39       
C           93.64       -8.69       24.41       
C           93.92       -7.91       25.61       
N           92.8        -7.4        26.3        
C           91.49       -7.82       26.06       
C           90.58       -10.78      21.13       
N           91.67       -10.95      20.25       
C           92.99       -10.61      20.54       
O           89.42       -10.98      20.88       
O           93.88       -10.72      19.64       
O           95.06       -7.75       25.96       
O           90.6        -7.42       26.79       
C           93.12       -6.9        27.66       
C           91.62       -12.12      19.34       
H           93.89       -7.52       28.06       
H           92.25       -6.9        28.31       
H           93.40739    -5.84859    27.65299    
H           92.07       -11.93      18.43       
H           90.51       -12.27      19.02       
H           92.01557    -13.02709   19.79696    
H           95.69       -8.93       23.86       
H           88.79       -9.96       22.9        
C           89.79       -9.74       23.21       
C           91.18       -8.63       24.81       
C           89.89       -8.94       24.38       
C           98.02       -10.36      20.42       
C           97.73       -11.3       21.42       
S           96.8        -9.16       20.48       
H           96.04       -11.73      22.71       
H           98.37       -12.1       21.57       
C           96.54       -11.03      22.09       
C           95.86       -9.92       21.72       
C           100.52      -9.24       17.63       
C           101.21      -9.98       18.52       
S           98.83       -9.23       18.05       
H           100.79      -11.14      20.34       
H           102.25      -10.27      18.33       
C           100.39      -10.6       19.55       
C           99.11       -10.21      19.5        
C           102.25      -7.27       14.65       
C           100.92      -7.41       14.45       
S           102.59      -7.89       16.26       
H           99.1        -8.37       15.21       
H           100.55      -7.15       13.48       
C           100.14      -8.16       15.36       
C           100.94      -8.48       16.44       
C           105.57      -5.87       9.0         
C           105.75      -6.78       10.08       
C           104.77      -4.82       9.34        
C           105.0       -6.72       11.24       
C           104.03      -5.71       11.46       
C           105.12      -7.69       12.29       
C           103.91      -4.82       10.4        
C           102.95      -3.7        10.44       
N           102.1       -3.61       11.53       
C           102.1       -4.57       12.6        
C           106.27      -8.69       12.29       
N           107.01      -8.7        11.07       
C           106.81      -7.84       9.96        
O           106.67      -9.36       13.26       
O           107.47      -8.19       8.97        
O           102.82      -2.95       9.47        
O           101.22      -4.54       13.42       
C           101.24      -2.44       11.62       
C           108.37      -9.4        11.08       
H           101.92      -1.65       11.39       
H           100.8       -2.31       12.6        
H           100.43798   -2.44       10.88185    
H           108.56      -9.82       10.05       
H           108.38      -10.31      11.67       
H           109.20955   -8.79133    11.41582    
H           104.69      -4.01       8.64        
H           104.27      -8.42       14.13       
C           104.23      -7.72       13.35       
C           103.16      -5.69       12.6        
C           103.17      -6.79       13.52       
C           108.04      -5.23       5.89        
C           107.45      -6.48       5.74        
S           107.35      -4.36       7.3         
H           105.95      -7.71       6.89        
H           107.58      -7.12       4.84        
C           106.45      -6.72       6.78        
C           106.39      -5.76       7.76        
C           110.14      -2.77       3.78        
C           109.73      -3.86       3.04        
S           109.51      -2.99       5.44        
H           108.59      -5.64       3.13        
H           109.87      -3.88       1.96        
C           108.96      -4.74       3.68        
C           108.79      -4.46       4.98        
C           111.37      0.83        3.23        
C           112.34      0.02        2.61        
S           110.06      -0.06       3.89        
H           112.7       -2.17       2.51        
H           113.29      0.38        2.14        
C           112.09      -1.37       2.75        
C           110.87      -1.55       3.43        
C           112.5       7.35        2.78        
C           112.85      6.45        3.73        
C           111.88      6.89        1.62        
C           112.46      5.09        3.56        
C           111.78      4.66        2.39        
C           112.84      4.08        4.47        
C           111.47      5.63        1.41        
C           110.87      5.38        0.11        
N           110.48      4.06        -0.11       
C           110.71      2.99        0.87        
C           113.78      4.44        5.53        
N           114.06      5.77        5.75        
C           113.61      6.87        4.91        
O           114.14      3.58        6.28        
O           114.0       8.01        5.16        
O           110.71      6.23        -0.8        
O           110.09      2.01        0.68        
C           110.28      3.52        -1.46       
C           114.44      6.13        7.15        
H           110.25      2.43        -1.5        
H           111.08      3.85        -2.1        
H           109.29719   3.81275     -1.82943    
H           115.1       6.91        7.09        
H           115.02      5.34        7.58        
H           113.57011   6.3653      7.7632      
H           111.64      7.64        0.9         
H           112.73      2.07        5.1         
C           112.39      2.78        4.33        
C           111.36      3.24        2.18        
C           111.62      2.3         3.21        
C           112.67      11.23       2.38        
C           113.92      10.76       2.35        
S           111.55      9.92        2.46        
H           114.96      8.94        2.72        
H           114.74      11.49       2.44        
C           114.02      9.39        2.63        
C           112.83      8.73        2.65        
C           111.77      14.92       2.08        
C           110.89      14.39       2.95        
S           113.02      13.82       1.61        
H           110.51      12.39       3.89        
H           110.23      15.0        3.59        
C           111.04      13.04       3.17        
C           112.15      12.59       2.44        
C           112.95      18.04       0.2         
C           111.97      18.42       1.07        
S           113.06      16.3        0.22        
H           110.73      17.51       2.67        
H           111.72      19.5        1.26        
C           111.48      17.44       1.9         
C           111.99      16.28       1.61        
C           115.97      22.93       -3.24       
C           114.85      22.12       -3.47       
C           116.55      22.77       -2.02       
C           114.4       21.2        -2.54       
C           115.04      21.04       -1.3        
C           113.29      20.28       -2.79       
C           116.09      21.84       -1.05       
C           116.91      21.76       0.17        
N           116.55      20.79       1.13        
C           115.44      19.93       0.9         
C           112.43      20.38       -4.01       
N           112.84      21.43       -4.87       
C           114.03      22.23       -4.75       
O           111.45      19.62       -4.19       
O           114.36      22.95       -5.68       
O           117.87      22.47       0.39        
O           115.11      19.18       1.82        
C           117.04      20.94       2.54        
C           112.11      21.57       -6.14       
H           116.32      20.44       3.21        
H           117.01      21.98       2.84        
H           118.04439   20.56881    2.74379     
H           112.11      22.61       -6.43       
H           111.1       21.33       -5.83       
H           112.37349   20.80801    -6.87351    
H           117.3       23.56       -1.68       
H           112.11      18.66       -2.2        
C           112.93      19.36       -1.88       
C           114.66      20.01       -0.36       
C           113.6       19.17       -0.64       
C           116.89      26.29       -4.9        
C           118.08      25.63       -4.87       
S           115.58      25.5        -4.2        
H           118.58      23.53       -4.16       
H           119.09      26.01       -5.17       
C           117.82      24.31       -4.31       
C           116.53      24.04       -4.02       
C           116.86      29.93       -6.4        
C           115.52      29.51       -6.33       
S           117.88      28.73       -5.78       
H           114.46      27.88       -5.19       
H           114.64      30.09       -6.61       
C           115.41      28.27       -5.6        
C           116.62      27.62       -5.41       
C           117.99      33.64       -7.09       
C           118.9       32.82       -7.59       
S           116.68      32.71       -6.36       
H           119.27      30.66       -7.61       
H           119.85      33.13       -7.99       
C           118.6       31.41       -7.36       
C           117.4       31.17       -6.76       
C           117.95      40.18       -7.38       
C           117.1       39.18       -7.79       
C           119.19      39.74       -6.87       
C           117.41      37.81       -7.48       
C           118.68      37.37       -6.97       
C           116.48      36.79       -7.84       
C           119.57      38.42       -6.67       
C           120.9       38.19       -6.09       
N           121.26      36.8        -5.9        
C           120.45      35.76       -6.34       
C           115.23      36.98       -8.54       
N           114.88      38.28       -8.67       
C           115.74      39.35       -8.41       
O           114.43      36.11       -8.59       
O           115.21      40.45       -8.67       
O           121.65      39.12       -5.94       
O           120.85      34.62       -6.05       
C           122.44      36.49       -5.06       
C           113.67      38.5        -9.49       
H           123.28      36.85       -5.56       
H           122.61      35.41       -4.95       
H           122.28731   36.77456    -4.01894    
H           113.29      39.47       -9.42       
H           112.89      37.83       -9.2        
H           113.91423   38.31858    -10.53668   
H           119.97      40.5        -6.7        
H           116.12      34.75       -7.96       
C           116.81      35.52       -7.59       
C           119.02      35.98       -6.72       
C           118.03      35.07       -7.05       
C           117.96      43.95       -8.77       
C           118.47      44.01       -7.55       
S           117.61      42.31       -9.24       
H           119.01      42.5        -5.99       
H           118.81      44.97       -7.08       
C           118.58      42.72       -6.91       
C           117.98      41.66       -7.64       
C           117.28      47.31       -10.7       
C           117.14      46.25       -11.58      
S           117.92      46.7        -9.19       
H           117.1       44.1        -11.46      
H           116.66      46.29       -12.52      
C           117.25      44.99       -10.94      
C           117.78      45.06       -9.67       
H           80.25       22.53       44.6        
H           116.92      48.33       -10.88      
