512

C           82.27       27.82       41.29       
C           83.53       28.37       41.2        
S           82.06       26.51       40.2        
H           85.38       27.99       40.0        
H           83.91       29.3        41.63       
C           84.38       27.65       40.32       
C           83.68       26.75       39.57       
C           76.74       30.14       44.36       
C           77.71       30.74       43.52       
C           77.0        28.82       44.79       
C           78.84       30.04       43.09       
C           79.13       28.65       43.46       
C           79.84       30.64       42.24       
C           78.18       28.1        44.39       
C           78.26       26.71       44.82       
N           79.45       26.05       44.37       
C           80.47       26.61       43.57       
C           79.69       32.0        41.76       
N           78.59       32.72       42.19       
C           77.64       32.23       43.11       
O           80.41       32.43       40.84       
O           76.9        33.03       43.61       
O           77.44       26.12       45.55       
O           81.35       25.79       43.29       
C           79.61       24.64       44.76       
C           78.2        33.96       41.47       
H           80.6        24.32       44.89       
H           79.18       24.44       45.74       
H           79.14639    23.99912    44.01004    
H           77.15       34.17       41.53       
H           78.34       33.74       40.42       
H           78.68545    34.86758    41.82881    
H           76.22       28.22       45.25       
H           81.65       30.4        41.21       
C           80.9        29.86       41.74       
C           80.26       27.95       42.95       
C           81.16       28.48       42.06       
C           73.11       30.69       46.04       
C           73.17       31.39       44.84       
S           74.66       29.96       46.25       
H           74.84       31.98       43.29       
H           72.37       32.04       44.46       
C           74.47       31.36       44.16       
C           75.3        30.49       44.72       
C           70.28       29.37       48.46       
C           69.94       30.66       48.04       
S           71.84       28.95       47.83       
H           70.85       32.2        46.63       
H           69.1        31.21       48.43       
C           70.86       31.27       47.12       
C           71.96       30.45       46.93       
C           67.89       27.3        51.03       
C           69.02       26.62       50.74       
S           68.07       28.89       50.34       
H           70.82       26.75       49.37       
H           69.08       25.57       50.97       
C           69.98       27.29       49.84       
C           69.6        28.56       49.52       
C           62.75       24.58       54.57       
C           62.87       25.48       53.55       
C           63.91       23.85       54.99       
C           64.14       25.86       53.01       
C           65.35       25.35       53.48       
C           64.36       26.85       51.99       
C           65.18       24.28       54.48       
C           66.28       23.49       54.93       
N           67.56       23.99       54.55       
C           67.82       25.04       53.6        
C           63.13       27.36       51.31       
N           61.9        27.01       51.84       
C           61.67       26.12       52.92       
O           63.23       28.05       50.29       
O           60.5        25.93       53.32       
O           66.11       22.74       55.92       
O           68.95       25.35       53.45       
C           68.67       23.64       55.47       
C           60.75       27.91       51.61       
H           68.31       23.81       56.54       
H           69.51       24.32       55.34       
H           68.98713    22.60406    55.3502     
H           59.99       27.25       51.58       
H           60.87       28.52       50.71       
H           60.63781    28.57613    52.46545    
H           63.76       22.99       55.63       
H           65.56       28.04       50.78       
C           65.6        27.28       51.55       
C           66.68       25.74       52.95       
C           66.83       26.82       52.0        
C           59.64       22.39       55.84       
C           60.22       22.92       56.95       
S           60.29       23.11       54.37       
H           61.89       24.32       57.27       
H           60.02       22.5        57.95       
C           61.31       23.8        56.56       
C           61.59       23.95       55.2        
C           56.96       19.95       54.37       
C           56.78       19.93       55.74       
S           58.14       21.17       53.99       
H           57.81       20.91       57.54       
H           55.99       19.37       56.19       
C           57.7        20.76       56.44       
C           58.59       21.42       55.63       
C           55.75       18.27       51.14       
C           54.79       18.03       52.1        
S           56.97       19.31       51.73       
H           54.56       18.56       54.22       
H           53.86       17.5        51.94       
C           55.07       18.69       53.34       
C           56.24       19.33       53.28       
C           55.32       16.87       44.74       
C           56.23       16.56       45.7        
C           54.1        17.42       45.16       
C           56.03       16.98       47.02       
C           54.8        17.5        47.45       
C           57.04       16.79       47.98       
C           53.85       17.7        46.47       
C           52.53       18.39       46.72       
N           52.34       18.83       48.06       
C           53.28       18.67       49.14       
C           58.36       16.26       47.71       
N           58.49       15.78       46.4        
C           57.5        15.87       45.38       
O           59.21       16.01       48.49       
O           57.65       15.32       44.3        
O           51.76       18.38       45.81       
O           52.89       19.13       50.2        
C           51.08       19.49       48.23       
C           59.75       15.09       46.03       
H           50.88       20.03       47.28       
H           51.02       20.24       49.0        
H           50.30806    18.76217    48.47996    
H           59.64       14.14       45.48       
H           60.21       14.65       46.95       
H           60.45685    15.78257    45.57305    
H           53.31       17.68       44.4        
H           57.62       17.15       50.01       
C           56.81       17.17       49.29       
C           54.61       17.92       48.82       
C           55.64       17.78       49.73       
C           54.74       15.87       40.97       
C           55.94       16.4        41.09       
S           53.89       16.01       42.48       
H           57.36       17.14       42.66       
H           56.6        16.35       40.19       
C           56.33       16.8        42.37       
C           55.33       16.57       43.29       
C           53.45       14.19       37.75       
C           52.36       14.76       38.3        
S           54.87       14.3        38.67       
H           51.99       16.08       40.08       
H           51.45       14.7        37.77       
C           52.7        15.45       39.5        
C           54.05       15.46       39.79       
C           54.15       11.55       34.92       
C           52.8        11.68       35.01       
S           54.92       12.69       36.04       
H           51.27       12.6        36.25       
H           52.14       11.09       34.29       
C           52.32       12.57       36.02       
C           53.36       13.22       36.65       
C           56.58       8.39        29.55       
C           56.96       8.54        30.88       
C           55.49       9.16        29.14       
C           56.24       9.36        31.73       
C           55.09       10.04       31.35       
C           56.66       9.52        33.09       
C           54.76       9.97        29.99       
C           53.67       10.77       29.41       
N           53.05       11.7        30.3        
C           53.36       11.79       31.72       
C           57.86       8.84        33.62       
N           58.54       8.03        32.71       
C           58.15       7.84        31.38       
O           58.3        9.11        34.71       
O           58.88       7.08        30.68       
O           53.31       10.63       28.2        
O           52.91       12.78       32.36       
C           51.75       12.4        29.94       
C           59.98       7.85        32.89       
H           51.49       13.17       30.63       
H           50.98       11.65       29.89       
H           51.8254     12.94833    29.00098    
H           60.47       7.05        32.19       
H           60.08       7.71        33.95       
H           60.56293    8.64424     32.42366    
H           55.28       9.17        28.13       
H           56.29       10.24       34.95       
C           55.95       10.27       33.96       
C           54.37       10.88       32.29       
C           54.75       10.95       33.65       
C           59.07       7.18        26.69       
C           57.92       6.43        26.6        
S           58.89       8.37        27.92       
H           55.97       6.3         27.65       
H           57.74       5.57        25.96       
C           56.9        6.78        27.57       
C           57.3        7.82        28.39       
C           62.29       6.62        24.57       
C           61.89       7.89        24.43       
S           61.12       5.8         25.53       
H           60.15       9.2         25.07       
H           62.38       8.63        23.79       
C           60.65       8.19        25.08       
C           60.18       7.18        25.8        
C           65.58       5.79        22.71       
C           64.84       4.69        22.78       
S           64.74       7.09        23.53       
H           63.17       3.89        23.85       
H           65.25       3.74        22.37       
C           63.77       4.73        23.7        
C           63.48       6.01        23.98       
C           70.99       6.14        18.88       
C           69.72       5.64        18.68       
C           71.26       6.71        20.14       
C           68.74       5.76        19.66       
C           69.02       6.38        20.92       
C           67.44       5.3         19.52       
C           70.3        6.92        21.12       
C           70.75       7.68        22.3        
N           69.83       7.75        23.35       
C           68.52       7.11        23.22       
C           66.98       4.64        18.31       
N           67.9        4.62        17.27       
C           69.2        5.05        17.4        
O           65.87       4.14        18.2        
O           69.9        5.21        16.38       
O           71.98       7.86        22.41       
O           67.86       7.04        24.29       
C           70.53       7.72        24.71       
C           67.65       3.83        15.98       
H           71.04       6.8         24.81       
H           69.7        7.74        25.4        
H           71.11498    8.61509     24.92144    
H           68.1        4.3         15.09       
H           66.55       3.74        15.75       
H           68.1471     2.87182     16.13129    
H           72.24       7.05        20.28       
H           65.56       5.01        20.43       
C           66.53       5.38        20.54       
C           68.04       6.41        21.96       
C           66.8        5.88        21.8        
C           74.4        6.07        16.91       
C           73.69       4.91        16.6        
S           73.49       7.02        18.0        
H           71.83       3.92        17.2        
H           74.07       4.23        15.9        
C           72.46       4.78        17.32       
C           72.22       5.82        18.2        
C           77.99       6.62        15.39       
C           77.69       7.77        16.06       
S           76.75       5.43        15.67       
H           75.94       8.54        17.23       
H           78.43       8.53        16.08       
C           76.43       7.65        16.76       
C           75.72       6.49        16.56       
C           81.51       6.61        13.59       
C           80.73       5.5         13.19       
S           80.52       7.55        14.61       
H           78.8        4.49        13.51       
H           81.13       4.64        12.54       
C           79.45       5.31        13.77       
C           79.19       6.39        14.58       
C           87.2        9.04        11.27       
C           86.02       8.74        10.58       
C           87.31       8.81        12.64       
C           84.96       8.18        11.36       
C           85.08       7.93        12.76       
C           83.7        7.9         10.79       
C           86.26       8.36        13.42       
C           86.48       8.23        14.92       
N           85.4        7.73        15.64       
C           84.21       7.35        14.98       
C           83.39       8.23        9.34        
N           84.47       8.83        8.63        
C           85.79       9.08        9.17        
O           82.36       7.85        8.85        
O           86.62       9.51        8.41        
O           87.51       8.58        15.45       
O           83.34       6.92        15.74       
C           85.87       6.83        16.7        
C           84.25       8.97        7.15        
H           86.84       6.35        16.34       
H           85.21       5.96        16.97       
H           86.16575    7.31834     17.62853    
H           84.83       9.74        6.67        
H           83.22       9.3         6.97        
H           84.56454    8.06212     6.6353      
H           88.16       9.06        13.22       
H           81.72       6.98        11.08       
C           82.69       7.3         11.55       
C           83.97       7.41        13.51       
C           82.78       7.05        12.98       
C           90.61       10.54       10.29       
C           89.65       11.53       10.17       
S           89.95       9.12        10.99       
H           87.48       11.61       10.4        
H           89.82       12.56       9.87        
C           88.37       11.03       10.4        
C           88.37       9.74        10.77       
C           94.48       11.29       9.68        
C           94.26       9.96        9.57        
S           93.0        12.14       10.08       
H           92.57       8.57        9.67        
H           95.13       9.27        9.41        
C           92.89       9.6         9.73        
C           92.05       10.63       9.98        
C           97.24       14.03       9.91        
C           97.79       12.97       9.25        
S           95.56       13.73       10.19       
H           97.12       10.92       8.49        
H           98.8        13.01       8.91        
C           96.89       11.81       9.09        
C           95.68       12.09       9.61        
C           99.23       20.23       10.02       
C           99.04       19.32       8.97        
C           99.11       19.77       11.35       
C           98.73       17.98       9.3         
C           98.53       17.54       10.69       
C           98.46       17.09       8.27        
C           98.72       18.46       11.72       
C           98.68       18.17       13.15       
N           98.41       16.78       13.36       
C           98.24       15.78       12.42       
C           98.62       17.46       6.85        
N           98.99       18.75       6.52        
C           99.11       19.71       7.51        
O           98.66       16.57       6.02        
O           99.2        20.86       7.16        
O           98.97       18.95       14.07       
O           97.99       14.61       12.67       
C           98.53       16.25       14.76       
C           99.38       19.13       5.18        
H           99.44       16.65       15.17       
H           98.54       15.15       14.78       
H           97.68636    16.67182    15.30629    
H           98.81       20.02       4.95        
H           99.12       18.4        4.49        
H           100.45339   19.27733    5.06073     
H           99.25       20.55       12.06       
H           97.88       15.2        7.76        
C           98.05       15.81       8.61        
C           98.22       16.22       11.0        
C           97.95       15.33       9.94        
C           100.0       24.12       10.1        
C           100.91      23.54       9.31        
S           98.95       22.93       10.81       
H           101.32      21.47       8.54        
H           101.6       24.12       8.74        
C           100.71      22.11       9.14        
C           99.73       21.64       9.92        
C           100.49      27.64       11.61       
C           99.27       27.36       11.98       
S           101.28      26.38       10.77       
H           97.79       25.76       11.36       
H           98.67       28.06       12.61       
C           98.83       26.12       11.26       
C           99.86       25.46       10.64       
C           102.94      30.83       11.94       
C           102.3       30.59       13.1        
S           102.42      29.55       10.84       
H           100.66      29.32       13.97       
H           102.45      31.21       14.01       
C           101.3       29.58       13.06       
C           101.29      28.85       11.91       
C           108.61      33.63       10.2        
C           108.11      33.13       11.36       
C           107.69      33.85       9.15        
C           106.79      32.78       11.5        
C           105.88      32.72       10.35       
C           106.31      32.17       12.69       
C           106.36      33.42       9.21        
C           105.47      33.68       8.11        
N           104.11      33.39       8.24        
C           103.55      32.66       9.38        
C           107.09      32.03       13.95       
N           108.39      32.44       13.85       
C           108.98      32.93       12.65       
O           106.64      31.51       14.97       
O           110.18      33.17       12.73       
O           105.94      34.26       7.12        
O           102.34      32.47       9.33        
C           103.12      34.0        7.27        
C           108.96      33.04       15.12       
H           103.14      35.11       7.26        
H           102.1       33.87       7.59        
H           103.14761   33.50993    6.29677     
H           110.05      33.06       15.14       
H           108.64      32.36       15.86       
H           108.54269   34.04153    15.22433    
H           108.09      34.24       8.2         
H           104.85      31.17       13.69       
C           105.03      31.76       12.77       
C           104.52      32.36       10.5        
C           104.12      31.74       11.68       
C           112.4       33.99       9.14        
C           111.83      35.19       9.03        
S           111.22      32.86       9.77        
H           109.91      36.2        9.43        
H           112.37      36.03       8.73        
C           110.44      35.26       9.39        
C           109.99      34.04       9.89        
C           115.7       33.26       7.14        
C           115.5       32.13       7.87        
S           114.58      34.53       7.59        
H           113.93      31.56       9.36        
H           116.07      31.19       7.81        
C           114.37      32.27       8.71        
C           113.7       33.5        8.65        
C           117.59      34.61       4.14        
C           118.46      33.94       4.95        
S           116.02      34.41       4.81        
H           118.58      32.72       6.8         
H           119.44      33.78       4.54        
C           118.0       33.33       6.06        
C           116.7       33.63       6.17        
C           119.05      38.68       -1.0        
C           119.4       38.72       0.36        
C           118.28      37.56       -1.44       
C           118.98      37.59       1.19        
C           118.16      36.5        0.72        
C           119.21      37.55       2.59        
C           117.79      36.51       -0.64       
C           116.84      35.49       -1.23       
N           116.26      34.58       -0.36       
C           116.71      34.43       1.02        
C           119.9       38.7        3.24        
N           120.37      39.75       2.36        
C           120.24      39.76       0.98        
O           120.11      38.6        4.39        
O           120.64      40.74       0.33        
O           116.54      35.55       -2.35       
O           116.23      33.47       1.67        
C           115.48      33.5        -0.92       
C           121.21      40.83       3.03        
H           115.56      32.61       -0.32       
H           115.85      33.2        -1.93       
H           114.40644   33.67409    -0.99254    
H           122.23      40.63       2.73        
H           121.2       40.59       4.12        
H           120.96418   41.8856     2.91432     
H           117.81      37.61       -2.41       
H           118.98      36.54       4.43        
C           118.71      36.53       3.38        
C           117.63      35.5        1.59        
C           117.94      35.46       2.95        
C           119.58      41.21       -3.98       
C           120.35      40.11       -4.21       
S           118.78      41.17       -2.47       
H           120.68      38.19       -3.2        
H           120.85      39.98       -5.12       
C           120.21      39.16       -3.14       
C           119.42      39.54       -2.11       
C           118.76      44.56       -5.73       
C           119.7       44.07       -6.49       
S           118.28      43.43       -4.41       
H           121.1       42.38       -6.22       
H           120.15      44.61       -7.35       
C           120.15      42.79       -6.0        
C           119.46      42.31       -4.93       
C           117.36      48.03       -6.55       
C           117.15      47.84       -5.24       
S           117.97      46.59       -7.34       
H           117.72      46.24       -3.67       
H           116.74      48.66       -4.6        
C           117.69      46.62       -4.74       
C           118.13      45.85       -5.77       
C           116.03      53.91       -9.19       
C           117.03      53.57       -8.26       
C           115.39      52.91       -9.88       
C           117.12      52.19       -7.92       
C           116.37      51.13       -8.59       
C           118.02      51.78       -6.94       
C           115.54      51.58       -9.61       
C           114.73      50.6        -10.41      
N           114.75      49.28       -10.04      
C           115.61      48.77       -9.0        
C           118.8       52.81       -6.24       
N           118.67      54.2        -6.54       
C           117.85      54.61       -7.61       
O           119.58      52.44       -5.35       
O           117.97      55.81       -7.89       
O           113.92      51.01       -11.28      
O           115.63      47.57       -8.72       
C           113.87      48.35       -10.71      
C           119.24      55.2        -5.62       
H           114.15      47.34       -10.57      
H           114.03      48.48       -11.77      
H           112.84914   48.4794     -10.35054   
H           119.45      56.19       -6.1        
H           120.22      54.92       -5.43       
H           118.66306   55.39231    -4.71542    
H           114.69      53.24       -10.65      
H           118.64      50.13       -5.68       
C           118.02      50.37       -6.57       
C           116.38      49.78       -8.16       
C           117.22      49.38       -7.11       
C           115.21      57.66       -9.87       
C           115.69      57.16       -11.04      
S           114.84      56.42       -8.76       
H           116.5       55.2        -11.64      
H           115.71      57.68       -12.01      
C           116.02      55.73       -10.88      
C           115.78      55.24       -9.62       
C           113.48      60.75       -8.31       
C           113.2       60.7        -9.58       
S           114.53      59.38       -7.92       
H           113.62      59.5        -11.35      
H           112.43      61.34       -9.99       
C           113.82      59.75       -10.32      
C           114.64      58.98       -9.6        
H           83.94       26.49       38.51       
H           113.38      61.61       -7.7        
