512

C           69.81       1.62        38.75       
C           70.11       2.52        39.69       
S           70.62       2.21        37.27       
H           71.21       4.4         39.97       
H           69.71       2.42        40.73       
C           70.97       3.58        39.34       
C           71.43       3.54        38.06       
C           66.66       -3.93       40.21       
C           66.14       -2.65       40.06       
C           67.98       -4.14       40.14       
C           67.02       -1.6        39.7        
C           68.43       -1.88       39.6        
C           66.61       -0.27       39.48       
C           68.9        -3.19       39.89       
C           70.32       -3.63       39.96       
N           71.18       -2.59       39.72       
C           70.81       -1.26       39.47       
C           65.23       0.07        39.66       
N           64.36       -0.91       40.0        
C           64.68       -2.24       40.26       
O           64.87       1.19        39.53       
O           63.74       -3.08       40.42       
O           70.75       -4.7        40.37       
O           71.76       -0.57       39.33       
C           72.53       -2.93       39.26       
C           62.96       -0.62       39.84       
H           73.25       -2.23       39.64       
H           72.86       -3.8        39.84       
H           72.64869    -3.11152    38.1918     
H           62.55       -1.51       39.42       
H           62.91       0.12        39.05       
H           62.51928    -0.34988    40.79964    
H           68.35       -5.15       40.28       
H           67.14       1.67        38.93       
C           67.56       0.7         39.09       
C           69.39       -0.85       39.28       
C           68.97       0.46        39.03       
C           64.59       -7.37       40.26       
C           65.47       -7.34       41.31       
S           64.8        -5.91       39.29       
H           66.8        -5.78       42.29       
H           65.45       -8.05       42.07       
C           66.11       -6.08       41.44       
C           65.91       -5.18       40.42       
C           61.93       -10.15      39.83       
C           61.98       -9.4        38.72       
S           63.16       -9.75       40.98       
H           62.96       -7.58       38.03       
H           61.31       -9.49       37.87       
C           62.9        -8.34       38.79       
C           63.54       -8.35       39.98       
C           59.69       -13.41      39.55       
C           59.81       -13.15      40.92       
S           60.36       -12.07      38.64       
H           61.11       -11.78      42.16       
H           59.42       -13.82      41.67       
C           60.7        -12.04      41.15       
C           61.09       -11.39      40.01       
C           55.82       -18.67      37.78       
C           55.65       -17.58      38.69       
C           57.07       -18.63      37.14       
C           56.69       -16.58      38.76       
C           57.91       -16.53      38.05       
C           56.61       -15.5       39.63       
C           58.07       -17.68      37.27       
C           59.31       -17.97      36.5        
N           60.31       -16.98      36.67       
C           60.22       -15.8       37.47       
C           55.45       -15.36      40.52       
N           54.41       -16.31      40.36       
C           54.42       -17.42      39.52       
O           55.33       -14.38      41.28       
O           53.41       -18.09      39.42       
O           59.44       -18.95      35.81       
O           61.21       -15.05      37.5        
C           61.21       -16.9       35.48       
C           53.57       -16.53      41.56       
H           61.75       -16.01      35.51       
H           60.56       -16.98      34.57       
H           61.96561    -17.6844    35.52318    
H           52.59       -16.98      41.28       
H           53.26       -15.51      41.93       
H           54.0692     -17.13618   42.31594    
H           57.28       -19.5       36.6        
H           57.39       -13.82      40.63       
C           57.64       -14.59      39.88       
C           58.99       -15.54      38.25       
C           58.81       -14.53      39.1        
C           54.22       -22.13      36.87       
C           54.06       -21.98      38.22       
S           55.1        -20.88      36.2        
H           54.47       -20.34      39.74       
H           53.56       -22.69      38.82       
C           54.55       -20.68      38.69       
C           55.18       -19.97      37.71       
C           53.71       -25.61      35.02       
C           53.71       -24.63      34.11       
S           53.88       -24.93      36.59       
H           54.07       -22.52      33.99       
H           53.56       -24.85      33.03       
C           53.88       -23.35      34.66       
C           53.85       -23.31      36.02       
C           52.61       -29.1       33.69       
C           53.2        -29.35      34.91       
S           52.33       -27.43      33.51       
H           54.37       -28.28      36.32       
H           53.43       -30.29      35.3        
C           53.76       -28.2       35.44       
C           53.46       -27.0       34.8        
C           50.11       -34.39      30.65       
C           49.72       -33.67      31.84       
C           51.18       -33.74      29.93       
C           50.48       -32.52      32.2        
C           51.5        -31.95      31.43       
C           50.19       -31.95      33.48       
C           51.68       -32.54      30.19       
C           52.72       -31.97      29.25       
N           53.41       -30.78      29.57       
C           53.11       -30.13      30.8        
C           49.25       -32.5       34.5        
N           48.36       -33.46      33.94       
C           48.59       -34.11      32.67       
O           48.88       -31.83      35.5        
O           47.71       -34.92      32.38       
O           52.89       -32.44      28.15       
O           53.8        -29.17      31.11       
C           53.77       -29.79      28.58       
C           47.14       -33.83      34.74       
H           54.21       -28.88      28.98       
H           52.8        -29.37      28.18       
H           54.59469    -30.09751   27.93702    
H           46.3        -33.86      34.01       
H           46.88       -32.98      35.28       
H           47.21091    -34.74471   35.32854    
H           51.4        -34.15      28.98       
H           50.74       -30.53      34.88       
C           50.97       -30.91      33.9        
C           52.22       -30.81      31.82       
C           52.03       -30.33      33.08       
C           50.52       -38.09      29.39       
C           49.31       -38.04      29.91       
S           51.24       -36.54      29.3        
H           47.99       -36.49      30.79       
H           48.63       -38.88      30.17       
C           48.95       -36.69      30.3        
C           49.89       -35.73      30.04       
C           53.21       -40.75      28.36       
C           52.2        -41.31      29.15       
S           52.79       -39.07      28.12       
H           50.28       -40.83      30.04       
H           52.34       -42.36      29.5        
C           51.16       -40.47      29.5        
C           51.34       -39.24      29.02       
C           56.84       -41.18      26.89       
C           56.76       -42.14      27.86       
S           55.34       -40.38      26.68       
H           55.2        -42.96      29.18       
H           57.68       -42.61      28.25       
C           55.39       -42.26      28.38       
C           54.53       -41.27      27.92       
C           62.58       -38.9       24.61       
C           62.21       -39.33      25.84       
C           61.68       -39.03      23.54       
C           60.88       -39.74      26.07       
C           59.95       -39.86      25.0        
C           60.45       -40.14      27.38       
C           60.41       -39.48      23.74       
C           59.63       -39.49      22.5        
N           58.26       -39.91      22.68       
C           57.75       -40.34      23.88       
C           61.39       -40.18      28.54       
N           62.72       -39.83      28.21       
C           63.19       -39.41      26.96       
O           60.99       -40.66      29.64       
O           64.37       -39.22      26.82       
O           60.02       -39.16      21.4        
O           56.73       -40.98      23.88       
C           57.26       -39.61      21.66       
C           63.72       -40.24      29.18       
H           56.26       -39.95      21.86       
H           57.41       -40.24      20.79       
H           57.083      -38.54798   21.49008    
H           64.48       -40.87      28.73       
H           63.2        -40.97      29.86       
H           64.07967    -39.3808    29.74614    
H           62.0        -38.93      22.55       
H           58.89       -40.82      28.59       
C           59.16       -40.56      27.56       
C           58.56       -40.28      25.12       
C           58.17       -40.64      26.43       
C           66.4        -37.81      24.15       
C           66.24       -39.12      23.74       
S           64.8        -37.13      24.27       
H           64.61       -40.66      23.64       
H           67.2        -39.64      23.4        
C           64.85       -39.64      23.79       
C           63.95       -38.66      24.12       
C           69.42       -35.39      23.6        
C           69.97       -36.64      23.64       
S           67.74       -35.39      24.01       
H           69.07       -38.62      23.77       
H           70.97       -36.89      23.31       
C           68.95       -37.61      23.87       
C           67.64       -37.1       24.11       
C           70.61       -31.73      22.65       
C           71.61       -32.64      22.44       
S           69.29       -32.52      23.45       
H           71.94       -34.86      22.55       
H           72.56       -32.33      22.06       
C           71.3        -34.0       22.76       
C           70.0        -34.12      23.22       
C           72.37       -25.77      20.35       
C           71.21       -26.56      20.19       
C           73.26       -26.22      21.3        
C           71.0        -27.75      20.93       
C           72.01       -28.22      21.84       
C           69.87       -28.62      20.79       
C           73.11       -27.37      22.01       
C           74.17       -27.63      22.93       
N           74.05       -28.78      23.74       
C           72.87       -29.58      23.7        
C           68.85       -28.25      19.79       
N           68.96       -26.94      19.32       
C           70.09       -26.08      19.4        
O           67.86       -28.99      19.59       
O           69.98       -24.9       18.94       
O           75.16       -26.88      22.98       
O           72.91       -30.53      24.46       
C           75.29       -29.52      24.0        
C           67.8        -26.35      18.58       
H           75.9        -29.59      23.11       
H           75.07       -30.53      24.44       
H           75.8918     -29.10228   24.80712    
H           67.75       -25.32      18.8        
H           66.87       -26.84      18.88       
H           67.97948    -26.45769   17.51029    
H           74.07       -25.51      21.59       
H           69.16       -30.58      21.03       
C           69.85       -29.88      21.39       
C           71.84       -29.39      22.63       
C           70.85       -30.31      22.33       
C           73.64       -22.53      18.61       
C           72.71       -22.25      19.54       
S           73.91       -24.24      18.53       
H           71.63       -23.31      21.13       
H           72.38       -21.23      19.79       
C           72.27       -23.37      20.32       
C           72.75       -24.53      19.79       
C           75.84       -20.63      15.99       
C           75.7        -19.77      17.06       
S           75.2        -22.18      16.34       
H           74.49       -19.78      18.86       
H           76.19       -18.82      17.12       
C           74.81       -20.36      17.98       
C           74.43       -21.63      17.78       
C           79.0        -20.29      13.64       
C           77.95       -20.45      12.82       
S           78.51       -20.19      15.28       
H           75.73       -20.5       13.01       
H           78.08       -20.6       11.78       
C           76.7        -20.54      13.51       
C           76.84       -20.42      14.92       
C           85.34       -20.45      11.47       
C           84.67       -21.02      12.57       
C           84.48       -19.73      10.59       
C           83.23       -20.83      12.65       
C           82.49       -19.99      11.83       
C           82.57       -21.26      13.77       
C           83.15       -19.47      10.73       
C           82.65       -18.45      9.86        
N           81.26       -18.25      9.97        
C           80.44       -18.88      10.9        
C           83.19       -22.06      14.82       
N           84.59       -22.36      14.73       
C           85.36       -21.84      13.63       
O           82.51       -22.47      15.77       
O           86.56       -21.92      13.81       
O           83.3        -17.97      8.91        
O           79.2        -18.79      10.8        
C           80.57       -17.21      9.18        
C           85.3        -22.72      15.97       
H           79.47       -17.22      9.37        
H           80.64       -17.48      8.09        
H           80.99833    -16.21303   9.28339     
H           86.24       -23.26      15.73       
H           84.63       -23.36      16.54       
H           85.4782     -21.87892   16.64002    
H           84.96       -19.27      9.65        
H           80.72       -21.41      14.91       
C           81.21       -20.99      14.05       
C           81.08       -19.73      12.01       
C           80.42       -20.28      13.13       
C           88.67       -19.99      9.63        
C           88.41       -21.37      9.51        
S           87.62       -19.11      10.69       
H           86.71       -22.59      10.25       
H           89.01       -22.08      9.06        
C           87.2        -21.62      10.24       
C           86.62       -20.51      10.82       
C           91.6        -17.33      9.35        
C           91.96       -18.4       8.55        
S           90.1        -17.66      10.12       
H           91.04       -20.32      7.9         
H           92.91       -18.46      8.03        
C           90.86       -19.38      8.45        
C           89.88       -19.19      9.3         
C           94.15       -14.41      10.05       
C           92.96       -13.99      10.46       
S           94.06       -15.97      9.3         
H           90.94       -14.87      10.61       
H           92.74       -12.99      10.79       
C           91.94       -14.98      10.23       
C           92.35       -16.15      9.62        
C           99.46       -10.56      10.85       
C           99.28       -11.92      10.79       
C           98.35       -9.77       10.65       
C           98.03       -12.48      10.52       
C           96.88       -11.66      10.29       
C           97.74       -13.87      10.5        
C           97.08       -10.28      10.38       
C           96.11       -9.28       9.92        
N           94.92       -9.86       9.38        
C           94.57       -11.21      9.45        
C           98.82       -14.82      10.9        
N           100.05      -14.29      11.22       
C           100.36      -12.9       11.14       
O           98.71       -16.08      10.72       
O           101.56      -12.55      11.39       
O           96.39       -8.12       9.92        
O           93.52       -11.6       8.87        
C           93.71       -8.99       9.5         
C           100.94      -15.01      12.12       
H           93.63       -8.57       10.51       
H           92.72       -9.51       9.42        
H           93.77687    -8.20091    8.75103     
H           101.9       -14.94      11.68       
H           100.58      -16.02      11.95       
H           100.87509   -14.68546   13.15854    
H           98.51       -8.67       10.61       
H           96.36       -15.44      10.43       
C           96.49       -14.4       10.27       
C           95.61       -12.19      9.94        
C           95.37       -13.56      10.0        
C           102.66      -8.88       12.61       
C           102.92      -9.21       11.26       
S           101.01      -9.17       12.93       
H           101.72      -10.1       9.57        
H           103.93      -9.16       10.88       
C           101.77      -9.71       10.6        
C           100.65      -9.74       11.29       
C           105.63      -7.54       14.71       
C           104.51      -7.36       15.51       
S           105.2       -8.27       13.16       
H           102.35      -7.84       15.3        
H           104.41      -6.86       16.45       
C           103.34      -7.91       14.86       
C           103.53      -8.5        13.64       
C           109.47      -6.92       14.73       
C           108.97      -6.37       15.88       
S           108.29      -7.73       13.86       
H           106.97      -6.01       16.81       
H           109.58      -5.95       16.69       
C           107.56      -6.46       15.99       
C           107.03      -7.17       14.94       
C           115.98      -6.39       13.61       
C           115.23      -6.83       14.67       
C           115.29      -6.07       12.44       
C           113.85      -7.04       14.57       
C           113.1       -6.73       13.44       
C           113.07      -7.38       15.7        
C           113.92      -6.4        12.33       
C           113.33      -6.21       10.99       
N           112.0       -6.32       10.89       
C           111.13      -6.49       11.98       
C           113.61      -7.92       16.94       
N           114.99      -7.9        16.96       
C           115.84      -7.39       15.9        
O           112.98      -8.25       17.91       
O           116.96      -7.44       16.01       
O           114.03      -6.1        9.96        
O           109.96      -6.32       11.75       
C           111.41      -6.4        9.52        
C           115.64      -8.47       18.15       
H           111.84      -5.54       8.99        
H           110.31      -6.31       9.55        
H           111.51016   -7.35149    8.99775     
H           116.47      -9.08       17.79       
H           114.96      -9.04       18.76       
H           116.06119   -7.66906    18.75761    
H           115.8       -5.85       11.54       
H           111.25      -7.48       16.59       
C           111.71      -7.26       15.68       
C           111.72      -6.8        13.34       
C           110.95      -6.92       14.53       
C           119.47      -4.89       12.67       
C           119.36      -4.86       14.04       
S           118.19      -5.76       11.96       
H           117.88      -5.45       15.51       
H           119.99      -4.26       14.69       
C           118.15      -5.48       14.49       
C           117.34      -5.87       13.49       
C           121.55      -3.04       9.97        
C           122.18      -2.93       11.14       
S           120.05      -3.97       10.14       
H           121.9       -3.72       13.2        
H           123.03      -2.31       11.4        
C           121.57      -3.65       12.19       
C           120.39      -4.24       11.77       
C           122.49      -0.31       7.35        
C           121.87      -1.35       6.73        
S           122.53      -0.71       9.05        
H           120.97      -3.28       7.05        
H           121.6       -1.35       5.68        
C           121.42      -2.4        7.53        
C           121.77      -2.24       8.81        
C           125.5       4.62        4.05        
C           125.56      3.22        3.99        
C           124.76      5.15        5.08        
C           124.83      2.41        4.89        
C           124.1       2.97        5.96        
C           124.74      1.03        4.69        
C           124.04      4.43        6.04        
C           123.22      5.17        7.01        
N           122.34      4.41        7.78        
C           122.37      2.98        7.77        
C           125.6       0.3         3.71        
N           126.42      1.16        2.94        
C           126.4       2.56        2.97        
O           125.53      -0.91       3.58        
O           127.07      3.15        2.08        
O           123.2       6.39        7.03        
O           121.56      2.49        8.52        
C           121.12      5.05        8.37        
C           127.49      0.47        2.26        
H           120.46      4.38        8.96        
H           120.53      5.49        7.64        
H           121.32513   5.7927      9.14099     
H           127.79      1.06        1.43        
H           127.1       -0.43       1.85        
H           128.33447   0.29109     2.92556     
H           124.69      6.22        5.17        
H           123.94      -0.87       5.31        
C           123.93      0.24        5.59        
C           123.23      2.2         6.81        
C           123.16      0.8         6.63        
C           125.91      7.01        0.9         
C           126.64      7.49        1.92        
S           125.23      5.48        1.35        
H           127.17      7.02        4.03        
H           127.29      8.27        1.76        
C           126.55      6.75        3.14        
C           125.8       5.63        3.04        
C           126.83      8.5         -2.56       
C           125.63      7.82        -2.73       
S           127.42      8.27        -0.94       
H           124.15      6.81        -1.39       
H           125.16      7.67        -3.69       
C           125.08      7.37        -1.51       
C           125.94      7.55        -0.42       
C           129.61      9.9         -4.9        
C           128.38      9.81        -5.58       
S           129.29      9.51        -3.22       
H           126.35      8.96        -5.41       
H           128.33      9.94        -6.7        
C           127.31      9.21        -4.9        
C           127.68      8.99        -3.6        
C           135.4       12.15       -6.97       
C           134.1       12.49       -7.34       
C           135.54      10.96       -6.27       
C           133.05      11.78       -6.74       
C           133.23      10.63       -5.93       
C           131.7       12.14       -6.99       
C           134.53      10.28       -5.65       
C           134.9       9.12        -4.81       
N           133.76      8.37        -4.45       
C           132.39      8.66        -4.71       
C           131.36      13.18       -8.01       
N           132.45      13.87       -8.65       
C           133.82      13.62       -8.38       
O           130.2       13.47       -8.17       
O           134.71      14.36       -8.8        
O           136.06      8.91        -4.42       
O           131.53      7.94        -4.2        
C           134.09      7.07        -3.85       
C           132.2       14.95       -9.59       
H           135.04      6.63        -4.27       
H           133.35      6.32        -4.16       
H           134.18736   7.11172     -2.76516    
H           132.86      15.81       -9.37       
H           131.21      15.37       -9.42       
H           132.37471   14.65154    -10.62368   
H           136.57      10.69       -6.01       
H           129.62      11.91       -6.59       
C           130.62      11.53       -6.38       
C           132.11      9.94        -5.42       
C           130.83      10.41       -5.55       
C           139.12      13.1        -7.93       
C           138.47      12.9        -9.07       
S           138.08      13.19       -6.51       
H           136.37      12.23       -9.46       
H           138.88      12.91       -10.12      
C           137.12      12.54       -8.73       
C           136.69      12.66       -7.43       
C           142.64      14.91       -7.86       
C           142.41      14.28       -6.68       
S           141.43      14.39       -8.97       
H           140.72      13.0        -5.75       
H           143.0       14.51       -5.82       
C           141.17      13.45       -6.63       
C           140.53      13.47       -7.79       
H           72.36       4.05        37.69       
H           143.26      15.77       -8.02       
