512

C           80.37       17.52       41.27       
C           81.08       17.14       40.18       
S           81.01       16.78       42.68       
H           82.93       16.08       39.81       
H           80.9        17.43       39.18       
C           82.23       16.39       40.53       
C           82.34       16.02       41.85       
C           75.87       22.06       39.62       
C           76.81       22.0        40.6        
C           75.71       20.94       38.8        
C           77.64       20.87       40.75       
C           77.49       19.72       39.95       
C           78.63       20.71       41.77       
C           76.48       19.77       38.92       
C           76.04       18.61       38.17       
N           76.77       17.46       38.43       
C           77.87       17.33       39.35       
C           78.81       21.72       42.8        
N           78.05       22.86       42.58       
C           77.11       23.09       41.54       
O           79.5        21.53       43.81       
O           76.79       24.25       41.4        
O           75.26       18.67       37.26       
O           78.34       16.25       39.64       
C           76.24       16.17       37.95       
C           78.14       23.94       43.57       
H           76.35       15.36       38.7        
H           75.15       16.21       37.88       
H           76.57596    15.89837    36.94927    
H           78.49       24.84       43.04       
H           78.94       23.72       44.29       
H           77.21089    24.10313    44.11612    
H           74.93       20.92       38.08       
H           80.13       19.67       42.63       
C           79.28       19.53       41.91       
C           78.22       18.53       40.17       
C           79.15       18.38       41.14       
C           72.53       24.39       38.96       
C           73.7        25.13       38.9        
S           73.05       22.77       39.17       
H           75.87       24.88       39.23       
H           73.69       26.19       38.73       
C           74.91       24.4        39.09       
C           74.76       23.06       39.32       
C           68.77       24.4        38.13       
C           69.14       25.69       38.22       
S           70.19       23.41       38.45       
H           71.02       26.84       38.83       
H           68.36       26.43       38.13       
C           70.55       25.87       38.61       
C           71.22       24.73       38.68       
C           64.99       23.62       37.95       
C           65.71       22.48       37.97       
S           66.11       24.86       37.71       
H           67.82       21.73       37.99       
H           65.21       21.56       38.1        
C           67.11       22.6        37.92       
C           67.45       23.84       37.95       
C           58.29       23.74       38.23       
C           59.29       24.5        38.77       
C           58.7        22.7        37.38       
C           60.67       24.23       38.56       
C           61.13       23.23       37.62       
C           61.78       24.96       39.17       
C           60.07       22.45       37.09       
C           60.33       21.31       36.14       
N           61.68       21.13       35.76       
C           62.75       21.85       36.31       
C           61.51       25.89       40.24       
N           60.1        26.11       40.51       
C           59.02       25.62       39.78       
O           62.4        26.31       40.92       
O           57.88       26.0        39.97       
O           59.37       20.7        35.67       
O           63.87       21.58       35.99       
C           61.96       20.52       34.43       
C           59.78       27.07       41.59       
H           62.97       20.85       33.98       
H           61.21       20.94       33.74       
H           61.85169    19.43693    34.48776    
H           58.9        27.66       41.45       
H           60.61       27.77       41.55       
H           59.71505    26.5576     42.54986    
H           57.99       22.09       36.83       
H           63.81       25.26       39.39       
C           63.05       24.68       38.77       
C           62.5        22.94       37.27       
C           63.49       23.68       37.86       
C           54.61       23.5        39.22       
C           55.35       23.11       40.32       
S           55.55       23.9        37.82       
H           57.54       22.85       40.6        
H           54.93       22.94       41.29       
C           56.72       23.14       39.96       
C           56.98       23.55       38.73       
C           50.85       23.97       38.39       
C           50.91       23.8        39.76       
S           52.37       23.67       37.6        
H           52.62       23.67       41.19       
H           50.02       23.96       40.47       
C           52.27       23.69       40.2        
C           53.17       23.7        39.16       
C           48.19       24.16       35.62       
C           47.54       24.54       36.78       
S           49.85       23.85       35.92       
H           48.17       24.83       38.99       
H           46.51       24.85       36.97       
C           48.43       24.6        37.96       
C           49.7        24.23       37.6        
C           44.97       23.31       29.77       
C           45.92       22.6        30.48       
C           44.72       24.62       30.31       
C           46.35       23.05       31.76       
C           46.01       24.29       32.37       
C           47.29       22.24       32.56       
C           45.16       25.09       31.51       
C           44.76       26.42       31.94       
N           45.3        26.87       33.13       
C           46.21       26.1        33.92       
C           47.66       20.89       32.14       
N           47.21       20.42       30.92       
C           46.24       21.17       30.1        
O           48.44       20.18       32.78       
O           45.75       20.58       29.22       
O           44.17       27.17       31.22       
O           46.6        26.6        34.95       
C           45.03       28.31       33.54       
C           47.77       19.25       30.39       
H           45.16       28.97       32.7        
H           45.77       28.69       34.17       
H           44.02333    28.39331    33.94961    
H           46.97       18.66       30.03       
H           48.29       18.72       31.19       
H           48.45979    19.48467    29.57931    
H           44.06       25.27       29.67       
H           48.38       21.99       34.33       
C           47.77       22.65       33.77       
C           46.64       24.71       33.58       
C           47.55       23.95       34.32       
C           43.52       23.05       26.13       
C           42.48       23.22       26.98       
S           45.0        22.99       26.97       
H           42.16       23.62       29.11       
H           41.48       23.33       26.59       
C           42.85       23.35       28.34       
C           44.23       23.07       28.54       
C           44.01       22.58       22.26       
C           42.76       23.29       22.44       
S           44.68       22.28       23.8        
H           41.68       24.05       24.16       
H           42.09       23.68       21.67       
C           42.56       23.54       23.82       
C           43.46       23.08       24.7        
C           46.5        21.22       19.69       
C           45.47       21.95       19.06       
S           46.25       21.29       21.44       
H           43.75       23.22       19.76       
H           45.47       22.01       17.98       
C           44.55       22.52       19.95       
C           44.81       22.17       21.18       
C           50.66       17.34       16.37       
C           49.44       17.14       16.97       
C           51.12       18.66       16.29       
C           48.74       18.25       17.58       
C           49.22       19.57       17.54       
C           47.54       18.05       18.25       
C           50.43       19.78       16.87       
C           51.14       21.1        16.77       
N           50.45       22.21       17.36       
C           49.19       21.97       18.0        
C           46.89       16.77       18.34       
N           47.55       15.66       17.77       
C           48.78       15.77       17.1        
O           45.92       16.6        19.09       
O           49.23       14.76       16.56       
O           52.08       21.28       16.0        
O           48.68       22.94       18.58       
C           50.57       23.45       16.56       
C           46.95       14.29       18.02       
H           49.66       24.03       16.55       
H           50.62       23.21       15.51       
H           51.43435    24.05505    16.83371    
H           47.21       13.63       17.19       
H           45.85       14.44       17.9        
H           47.26311    13.91427    18.99411    
H           52.07       18.86       15.85       
H           46.07       18.88       19.54       
C           46.93       19.09       18.89       
C           48.58       20.6        18.17       
C           47.38       20.41       18.92       
C           53.52       15.25       14.64       
C           52.33       15.04       14.0        
S           53.22       16.24       16.04       
H           50.22       15.78       14.14       
H           52.29       14.51       13.12       
C           51.23       15.66       14.62       
C           51.49       16.36       15.71       
C           56.93       13.51       14.7        
C           56.14       12.77       13.84       
S           56.02       14.61       15.62       
H           54.18       13.05       13.04       
H           56.5        11.97       13.27       
C           54.92       13.39       13.74       
C           54.75       14.48       14.47       
C           60.7        12.28       14.93       
C           60.38       12.86       16.07       
S           59.4        12.5        13.82       
H           58.47       13.74       17.01       
H           61.11       12.86       16.87       
C           58.99       13.31       16.19       
C           58.34       13.22       14.97       
C           66.51       9.51        13.48       
C           65.23       9.29        13.09       
C           66.78       10.71       14.22       
C           64.22       10.2        13.57       
C           64.45       11.42       14.33       
C           62.87       9.86        13.26       
C           65.79       11.61       14.68       
C           66.15       12.56       15.75       
N           65.1        13.42       16.18       
C           63.73       13.36       15.82       
C           62.45       8.71        12.44       
N           63.47       7.79        12.17       
C           64.82       8.01        12.42       
O           61.27       8.49        12.16       
O           65.57       7.06        12.17       
O           67.31       12.67       16.11       
O           62.98       14.23       16.39       
C           65.51       14.48       17.18       
C           62.9        6.41        12.2        
H           64.83       15.36       17.32       
H           66.4        14.95       16.81       
H           65.50275    14.0306     18.17302    
H           63.56       5.85        11.54       
H           61.88       6.37        11.83       
H           62.91444    6.0202      13.21781    
H           67.75       10.89       14.56       
H           60.91       10.44       13.51       
C           61.92       10.71       13.78       
C           63.39       12.18       14.95       
C           62.07       11.83       14.59       
C           70.07       7.76        12.65       
C           69.81       7.89        13.99       
S           68.57       8.21        11.78       
H           68.31       8.62        15.28       
H           70.51       7.63        14.81       
C           68.56       8.48        14.25       
C           67.75       8.72        13.23       
C           73.23       6.14        11.61       
C           72.77       6.68        10.45       
S           72.37       6.48        13.0        
H           71.02       7.89        9.79        
H           73.36       6.6         9.59        
C           71.5        7.34        10.62       
C           71.18       7.25        11.97       
C           76.88       5.13        12.19       
C           76.13       4.08        12.66       
S           75.92       6.29        11.31       
H           73.94       3.64        12.88       
H           76.57       3.21        13.19       
C           74.7        4.28        12.47       
C           74.51       5.46        11.81       
C           83.18       4.33        13.36       
C           82.24       3.56        12.69       
C           82.76       5.46        14.06       
C           80.89       4.05        12.56       
C           80.52       5.23        13.22       
C           79.93       3.46        11.7        
C           81.45       5.93        14.04       
C           81.13       7.12        14.91       
N           79.72       7.41        14.92       
C           78.7        6.81        14.12       
C           80.21       2.14        11.02       
N           81.52       1.72        11.19       
C           82.56       2.28        12.0        
O           79.36       1.48        10.42       
O           83.69       1.83        12.08       
O           81.93       7.52        15.75       
O           77.57       7.34        14.13       
C           79.24       7.89        16.27       
C           81.87       0.33        10.67       
H           79.86       7.4         17.02       
H           78.29       7.34        16.53       
H           79.20439    8.97267     16.39109    
H           82.95       0.19        10.56       
H           81.42       0.3         9.67        
H           81.58973    -0.46877    11.35666    
H           83.52       6.07        14.51       
H           78.07       3.32        11.05       
C           78.71       3.94        11.6        
C           79.17       5.69        13.19       
C           78.33       5.09        12.24       
C           87.1        4.3         13.45       
C           86.68       3.75        14.61       
S           85.81       4.83        12.46       
H           84.7        3.52        15.6        
H           87.38       3.48        15.44       
C           85.23       3.74        14.7        
C           84.65       4.11        13.53       
C           90.35       5.99        12.1        
C           90.76       5.23        13.21       
S           88.71       5.61        11.69       
H           89.67       4.06        14.67       
H           91.67       5.49        13.79       
C           89.67       4.54        13.76       
C           88.43       4.64        13.09       
C           91.41       9.14        10.07       
C           92.55       8.49        10.55       
S           90.05       8.37        10.75       
H           93.09       6.62        11.55       
H           93.51       8.8         10.25       
C           92.3        7.23        11.13       
C           90.98       7.01        11.36       
C           91.93       14.83       6.79        
C           91.15       13.71       6.54        
C           92.69       14.93       7.93        
C           91.26       12.62       7.45        
C           92.1        12.72       8.64        
C           90.6        11.42       7.28        
C           92.89       13.89       8.79        
C           93.84       14.02       9.9         
N           93.86       13.03       10.9        
C           93.16       11.83       10.71       
C           89.83       11.09       6.08        
N           89.71       12.21       5.2         
C           90.24       13.46       5.37        
O           89.44       9.95        5.84        
O           90.15       14.2        4.36        
O           94.49       15.05       9.92        
O           93.3        10.97       11.55       
C           94.48       13.16       12.23       
C           89.42       11.93       3.76        
H           94.4        12.3        12.93       
H           93.96       13.86       12.86       
H           95.48337    13.57985    12.15884    
H           88.7        12.7        3.34        
H           88.87       10.95       3.7         
H           90.33348    11.78577    3.18307     
H           93.22       15.83       8.19        
H           90.29       9.5         7.92        
C           90.77       10.39       8.2         
C           92.33       11.6        9.48        
C           91.54       10.42       9.34        
C           93.09       17.48       4.2         
C           92.38       18.16       5.07        
S           93.1        15.76       4.45        
H           91.34       17.76       7.0         
H           92.28       19.28       4.99        
C           91.83       17.36       6.14        
C           92.15       16.01       5.88        
C           95.29       19.47       1.69        
C           95.22       18.2        1.16        
S           94.19       19.63       3.03        
H           94.23       16.26       1.74        
H           95.75       17.81       0.27        
C           94.33       17.32       1.94        
C           93.76       17.98       3.04        
C           97.71       22.49       1.55        
C           97.57       22.05       0.23        
S           96.84       21.48       2.62        
H           96.16       20.62       -0.8        
H           98.11       22.47       -0.59       
C           96.54       21.06       0.1         
C           96.2        20.55       1.34        
C           102.5       26.28       3.97        
C           102.42      25.53       2.84        
C           101.42      26.29       4.84        
C           101.25      24.83       2.59        
C           100.04      25.02       3.34        
C           101.19      24.02       1.4         
C           100.16      25.81       4.46        
C           98.98       26.21       5.27        
N           97.78       25.62       4.94        
C           97.67       24.72       3.81        
C           102.26      23.93       0.39        
N           103.44      24.52       0.76        
C           103.56      25.32       1.87        
O           102.18      23.16       -0.57       
O           104.58      25.97       2.0         
O           99.1        26.97       6.19        
O           96.61       24.37       3.54        
C           96.86       25.26       6.04        
C           104.59      24.43       -0.18       
H           97.49       24.82       6.81        
H           96.11       24.52       5.68        
H           96.28334    26.13185    6.34892     
H           105.11      25.34       -0.08       
H           104.15      24.33       -1.16       
H           105.10165   23.4908     0.03027     
H           101.49      27.0        5.69        
H           99.96       22.82       0.21        
C           99.95       23.4        1.12        
C           98.84       24.49       2.94        
C           98.76       23.59       1.9         
C           104.9       29.21       5.02        
C           105.14      28.07       5.79        
S           103.68      28.87       3.8         
H           104.37      25.97       5.93        
H           105.76      28.1        6.65        
C           104.32      26.95       5.44        
C           103.56      27.21       4.35        
C           106.04      32.68       6.37        
C           106.04      32.78       4.98        
S           105.51      31.06       6.82        
H           105.39      31.59       3.28        
H           106.43      33.61       4.43        
C           105.54      31.62       4.33        
C           105.29      30.53       5.16        
C           107.69      35.82       8.21        
C           107.15      35.0        9.13        
S           107.29      35.15       6.69        
H           106.01      33.12       9.36        
H           107.22      35.11       10.18       
C           106.5       33.85       8.64        
C           106.54      33.75       7.28        
C           111.44      40.93       9.94        
C           111.49      40.05       8.88        
C           110.3       40.89       10.74       
C           110.47      39.04       8.76        
C           109.34      38.94       9.6         
C           110.57      38.04       7.74        
C           109.21      40.08       10.52       
C           108.01      40.35       11.45       
N           107.01      39.28       11.41       
C           107.14      38.15       10.5        
C           111.6       38.01       6.71        
N           112.59      38.96       6.92        
C           112.61      40.03       7.87        
O           111.54      37.16       5.75        
O           113.56      40.77       7.85        
O           107.96      41.28       12.18       
O           106.26      37.3        10.58       
C           105.88      39.28       12.34       
C           113.78      38.81       6.05        
H           106.18      39.83       13.26       
H           105.59      38.32       12.65       
H           105.01784   39.81439    11.94099    
H           113.9       39.85       5.62        
H           113.46      38.17       5.24        
H           114.63361   38.37961    6.57365     
H           110.23      41.65       11.56       
H           109.51      36.45       6.77        
C           109.54      37.07       7.62        
C           108.31      38.01       9.51        
C           108.5       37.03       8.56        
C           113.93      43.65       11.16       
C           112.75      44.34       11.02       
S           113.9       41.99       10.69       
H           110.83      43.7        10.18       
H           112.55      45.38       11.31       
C           111.86      43.42       10.32       
C           112.22      42.09       10.26       
C           117.09      44.95       13.24       
C           117.24      45.27       11.9        
S           115.55      44.14       13.37       
H           116.23      45.09       9.95        
H           118.18      45.68       11.58       
C           116.19      44.9        11.04       
C           115.18      44.2        11.67       
C           120.17      45.91       15.51       
C           119.24      45.33       16.33       
S           119.58      45.94       13.88       
H           117.24      44.38       16.08       
H           119.31      45.23       17.45       
C           118.08      44.89       15.67       
C           118.08      45.12       14.31       
C           125.73      48.47       17.83       
C           125.4       47.78       16.65       
C           124.66      48.78       18.66       
C           124.07      47.46       16.42       
C           122.99      47.73       17.3        
C           123.69      46.72       15.26       
C           123.36      48.43       18.44       
C           122.41      48.84       19.49       
N           121.03      48.47       19.28       
C           120.66      47.72       18.1        
C           124.64      46.35       14.21       
N           125.99      46.71       14.41       
C           126.41      47.37       15.65       
O           124.34      45.68       13.23       
O           127.56      47.54       15.75       
O           122.73      49.63       20.4        
O           119.43      47.49       18.02       
C           120.02      49.2        20.07       
C           126.85      46.79       13.19       
H           119.01      49.24       19.52       
H           120.34      50.2        20.17       
H           119.95169   48.73548    21.05369    
H           127.54      47.71       13.23       
H           126.24      46.93       12.29       
H           127.31264   45.83751    12.93147    
H           124.85      49.33       19.54       
H           122.17      45.67       14.28       
C           122.44      46.24       15.14       
C           121.7       47.23       17.12       
C           121.41      46.54       16.0        
C           129.03      50.22       19.27       
C           129.39      49.04       18.76       
S           127.32      50.48       19.05       
H           128.44      47.3        17.98       
H           130.45      48.63       18.78       
C           128.24      48.28       18.34       
C           127.0       48.88       18.41       
C           131.2       53.39       19.92       
C           130.35      53.17       21.0        
S           131.11      51.96       18.9        
H           128.82      51.66       21.75       
H           130.11      53.99       21.67       
C           129.6       51.92       21.0        
C           129.84      51.22       19.88       
H           82.79       15.1        42.2        
H           131.97      54.12       19.83       
