512

C           78.46       37.22       0.17        
C           79.51       38.04       0.55        
S           79.25       36.02       -0.84       
H           81.73       38.19       0.47        
H           79.4        38.88       1.22        
C           80.83       37.62       0.1         
C           80.81       36.56       -0.77       
C           72.07       37.6        1.98        
C           73.02       38.56       1.55        
C           72.54       36.24       2.15        
C           74.3        38.19       1.34        
C           74.79       36.79       1.37        
C           75.34       39.12       1.02        
C           73.8        35.85       1.77        
C           74.11       34.34       1.75        
N           75.5        34.07       1.47        
C           76.55       34.94       1.11        
C           74.96       40.57       0.86        
N           73.57       40.91       0.97        
C           72.63       40.06       1.43        
O           75.81       41.29       0.42        
O           71.49       40.45       1.52        
O           73.34       33.46       2.06        
O           77.67       34.48       1.11        
C           75.88       32.65       1.34        
C           73.2        42.35       0.81        
H           76.84       32.41       1.84        
H           75.17       32.05       1.92        
H           75.76557    32.27096    0.32445     
H           72.24       42.41       0.31        
H           73.9        42.86       0.15        
H           73.0482     42.83575    1.7739      
H           71.75       35.51       2.3         
H           77.28       39.48       0.4         
C           76.61       38.74       0.67        
C           76.09       36.45       1.04        
C           77.1        37.4        0.67        
C           68.22       38.4        2.89        
C           69.05       38.88       3.88        
S           69.11       37.38       1.76        
H           71.17       38.81       4.26        
H           68.62       39.36       4.7         
C           70.4        38.58       3.59        
C           70.66       37.84       2.46        
C           64.34       38.96       3.35        
C           64.48       37.97       2.35        
S           65.91       39.46       4.0         
H           66.25       37.14       1.21        
H           63.62       37.47       1.97        
C           65.84       37.73       2.05        
C           66.76       38.38       2.93        
C           60.61       38.7        4.8         
C           61.02       40.02       4.71        
S           61.92       37.76       4.08        
H           62.91       41.12       4.44        
H           60.44       40.8        5.22        
C           62.45       40.14       4.47        
C           63.04       39.02       3.97        
C           54.2        37.14       5.79        
C           54.84       38.41       5.53        
C           55.16       36.08       6.11        
C           56.27       38.44       5.58        
C           57.06       37.32       5.79        
C           56.88       39.59       5.06        
C           56.5        36.12       6.24        
C           57.16       34.94       6.66        
N           58.65       35.06       6.62        
C           59.27       36.21       6.17        
C           56.16       40.79       4.78        
N           54.81       40.67       4.57        
C           54.11       39.63       4.99        
O           56.68       41.91       4.49        
O           52.95       39.6        4.78        
O           56.47       34.04       6.94        
O           60.48       36.2        6.19        
C           59.53       34.07       7.25        
C           53.91       41.9        4.27        
H           59.87       34.5        8.17        
H           60.44       33.97       6.76        
H           59.12913    33.05727    7.2922      
H           53.25       41.68       3.47        
H           54.54       42.72       3.85        
H           53.37836    42.29696    5.1348      
H           54.74       35.17       6.39        
H           58.59       40.51       4.59        
C           58.24       39.5        4.92        
C           58.48       37.32       5.61        
C           59.19       38.46       5.25        
C           50.81       35.39       5.91        
C           50.67       36.6        6.45        
S           52.45       34.98       5.7         
H           51.99       38.31       6.93        
H           49.72       36.93       6.73        
C           51.86       37.29       6.58        
C           52.9        36.6        6.0         
C           48.56       32.4        4.47        
C           47.74       33.44       4.71        
S           50.13       32.73       5.1         
H           47.97       35.52       5.49        
H           46.61       33.42       4.49        
C           48.41       34.61       5.22        
C           49.82       34.38       5.5         
C           48.46       28.58       3.74        
C           47.68       29.21       2.82        
S           49.16       29.73       4.85        
H           47.08       31.34       2.28        
H           47.05       28.66       2.06        
C           47.56       30.6        3.0         
C           48.31       31.06       4.03        
C           48.95       22.06       4.25        
C           49.85       23.02       3.94        
C           47.6        22.34       4.48        
C           49.49       24.33       3.89        
C           48.1        24.76       4.06        
C           50.45       25.42       3.66        
C           47.15       23.71       4.32        
C           45.74       24.01       4.6         
N           45.37       25.38       4.37        
C           46.24       26.46       4.15        
C           51.82       25.11       3.36        
N           52.25       23.78       3.67        
C           51.37       22.72       3.96        
O           52.68       26.01       2.99        
O           51.86       21.57       4.17        
O           44.98       23.16       5.1         
O           45.78       27.6        3.98        
C           43.96       25.71       4.45        
C           53.66       23.48       3.89        
H           43.58       26.72       4.2         
H           43.53       25.56       5.44        
H           43.32638    25.05502    3.85198     
H           53.57       22.98       4.8         
H           54.2        24.37       4.0         
H           54.13042    23.15275    2.96279     
H           46.97       21.6        4.79        
H           50.67       27.47       3.53        
C           49.93       26.69       3.62        
C           47.69       26.14       3.94        
C           48.63       27.1        3.79        
C           49.63       18.35       3.22        
C           49.23       18.33       4.54        
S           49.79       19.96       2.64        
H           48.67       19.74       6.05        
H           49.08       17.33       5.12        
C           48.96       19.66       5.01        
C           49.2        20.65       4.11        
C           50.27       16.05       0.2         
C           49.8        15.33       1.29        
S           50.32       17.69       0.66        
H           49.14       15.45       3.44        
H           49.74       14.22       1.26        
C           49.45       15.99       2.43        
C           49.77       17.34       2.26        
C           52.26       15.98       -3.23       
C           52.32       14.76       -2.56       
S           51.07       16.97       -2.31       
H           51.57       13.59       -0.83       
H           52.88       13.99       -2.96       
C           51.49       14.52       -1.43       
C           50.91       15.72       -1.06       
C           55.47       17.39       -8.72       
C           55.89       17.34       -7.45       
C           54.19       16.99       -9.04       
C           55.0        16.89       -6.45       
C           53.61       16.64       -6.76       
C           55.33       16.8        -5.1        
C           53.2        16.79       -8.19       
C           51.84       16.33       -8.63       
N           50.96       15.95       -7.61       
C           51.32       16.1        -6.26       
C           56.65       17.13       -4.69       
N           57.58       17.58       -5.65       
C           57.32       17.64       -7.02       
O           56.96       17.0        -3.46       
O           58.31       17.98       -7.71       
O           51.63       16.18       -9.82       
O           50.59       16.06       -5.43       
C           49.53       15.85       -7.89       
C           58.7        18.43       -5.19       
H           49.02       16.61       -8.5        
H           49.06       15.85       -6.98       
H           49.31818    14.96035    -8.4831     
H           59.72       18.22       -5.67       
H           58.92       18.15       -4.11       
H           58.42214    19.47681    -5.31277    
H           54.05       16.93       -10.06      
H           54.69       16.45       -3.1        
C           54.37       16.48       -4.15       
C           52.71       16.34       -5.79       
C           53.01       16.38       -4.4        
C           57.83       17.08       -11.95      
C           57.01       18.24       -12.02      
S           57.55       16.25       -10.42      
H           55.53       19.29       -10.85      
H           57.02       18.9        -12.91      
C           56.27       18.48       -10.86      
C           56.41       17.51       -9.89       
C           60.96       15.62       -13.98      
C           60.32       16.58       -14.76      
S           60.08       15.56       -12.47      
H           58.75       17.91       -14.63      
H           60.91       17.03       -15.65      
C           59.27       17.14       -14.14      
C           58.87       16.69       -12.92      
C           64.56       14.29       -14.92      
C           64.03       13.4        -14.06      
S           63.41       15.57       -15.27      
H           62.2        13.39       -12.75      
H           64.45       12.41       -13.73      
C           62.81       13.87       -13.46      
C           62.28       14.95       -14.13      
C           70.62       12.87       -17.01      
C           69.43       12.45       -17.54      
C           70.59       13.99       -16.17      
C           68.21       12.99       -16.91      
C           68.26       14.03       -15.96      
C           66.96       12.38       -17.22      
C           69.54       14.52       -15.61      
C           69.77       15.54       -14.58      
N           68.58       16.18       -14.12      
C           67.32       15.69       -14.41      
C           66.76       11.26       -18.22      
N           67.96       10.97       -18.95      
C           69.29       11.52       -18.67      
O           65.64       10.72       -18.49      
O           70.31       11.12       -19.27      
O           70.94       15.82       -14.34      
O           66.43       16.29       -13.86      
C           68.59       17.28       -13.14      
C           68.03       9.94        -20.07      
H           67.96       16.93       -12.31      
H           67.89       17.97       -13.66      
H           69.5415     17.72024    -12.84177   
H           68.68       10.3        -20.82      
H           67.01       9.95        -20.6       
H           68.34835    8.96419     -19.7032    
H           71.59       14.27       -15.82      
H           65.01       12.24       -16.43      
C           65.89       12.79       -16.36      
C           67.13       14.61       -15.4       
C           65.92       13.98       -15.58      
C           74.42       11.86       -17.47      
C           74.17       13.17       -17.81      
S           72.91       11.08       -17.03      
H           72.5        14.63       -18.01      
H           74.89       13.79       -18.2       
C           72.87       13.61       -17.71      
C           72.02       12.58       -17.33      
C           77.82       10.16       -17.82      
C           77.05       9.18        -17.13      
S           77.02       11.7        -18.18      
H           74.82       9.1         -16.9       
H           77.35       8.23        -16.65      
C           75.67       9.71        -17.03      
C           75.59       11.03       -17.46      
C           81.56       11.2        -18.28      
C           81.53       9.84        -18.11      
S           79.98       11.77       -18.25      
H           79.99       8.19        -17.8       
H           82.39       9.16        -18.13      
C           80.2        9.31        -17.94      
C           79.28       10.24       -17.95      
C           85.88       15.0        -21.44      
C           85.35       13.8        -21.7       
C           85.69       15.56       -20.08      
C           84.64       13.06       -20.65      
C           84.35       13.69       -19.39      
C           83.99       11.85       -20.95      
C           84.86       14.99       -19.17      
C           84.59       15.65       -17.92      
N           83.69       15.1        -17.08      
C           82.96       13.91       -17.37      
C           84.1        11.15       -22.27      
N           85.0        11.8        -23.14      
C           85.61       13.09       -22.94      
O           83.6        10.1        -22.47      
O           86.35       13.4        -23.92      
O           85.23       16.64       -17.61      
O           82.27       13.45       -16.46      
C           83.53       15.78       -15.78      
C           85.41       11.06       -24.41      
H           84.47       16.21       -15.49      
H           83.43       15.1        -14.94      
H           82.74223    16.53164    -15.72941   
H           85.49       11.8        -25.22      
H           84.66       10.31       -24.56      
H           86.36503    10.54299    -24.31665   
H           86.18       16.52       -19.96      
H           82.48       10.57       -20.31      
C           83.19       11.31       -19.95      
C           83.38       13.07       -18.55      
C           82.89       11.84       -18.71      
C           88.41       17.22       -23.34      
C           87.34       17.93       -23.0       
S           88.26       15.63       -22.73      
H           85.47       17.78       -21.8       
H           87.32       19.01       -23.07      
C           86.37       17.25       -22.33      
C           86.66       15.91       -22.22      
C           90.94       18.37       -26.19      
C           91.57       17.46       -25.4       
S           89.28       18.6        -25.57      
H           91.36       16.29       -23.63      
H           92.56       17.15       -25.54      
C           90.86       17.01       -24.3       
C           89.58       17.55       -24.18      
C           92.89       20.27       -29.07      
C           91.54       20.23       -29.33      
S           93.1        19.5        -27.59      
H           89.63       19.76       -28.15      
H           91.16       20.68       -30.18      
C           90.71       19.68       -28.28      
C           91.46       19.1        -27.34      
C           97.46       22.91       -32.97      
C           96.42       23.49       -32.2       
C           97.71       21.53       -32.99      
C           95.51       22.6        -31.64      
C           95.8        21.16       -31.63      
C           94.37       22.99       -30.95      
C           96.88       20.61       -32.41      
C           97.23       19.13       -32.25      
N           96.32       18.4        -31.49      
C           95.23       18.79       -30.89      
C           94.09       24.48       -30.78      
N           95.11       25.39       -31.3       
C           96.21       24.91       -32.02      
O           93.21       24.91       -30.07      
O           97.06       25.72       -32.34      
O           98.3        18.66       -32.51      
O           94.64       18.06       -30.18      
C           96.54       16.91       -31.56      
C           94.74       26.71       -31.54      
H           96.44       16.53       -32.58      
H           95.66       16.44       -31.14      
H           97.3483     16.63366    -30.88296   
H           95.68       27.25       -31.42      
H           94.07       26.98       -30.75      
H           94.34375    26.97657    -32.51981   
H           98.64       21.14       -33.5       
H           92.75       22.47       -29.47      
C           93.52       22.16       -30.15      
C           94.89       20.31       -30.87      
C           93.81       20.8        -30.06      
C           99.4        25.35       -35.53      
C           100.32      24.6        -34.77      
S           97.79       24.83       -35.09      
H           100.22      22.97       -33.36      
H           101.41      24.66       -34.9       
C           99.64       23.68       -33.95      
C           98.32       23.75       -33.82      
C           100.93      28.0        -37.91      
C           99.59       28.19       -37.85      
S           101.33      26.65       -36.93      
H           97.79       27.09       -37.14      
H           99.11       29.05       -38.41      
C           98.85       27.23       -37.13      
C           99.67       26.44       -36.43      
C           104.23      29.41       -39.42      
C           103.13      30.07       -39.97      
S           103.6       28.46       -38.07      
H           100.93      29.95       -39.98      
H           103.26      30.73       -40.79      
C           101.85      29.57       -39.54      
C           101.93      28.66       -38.51      
C           110.58      30.81       -41.09      
C           109.89      29.61       -40.77      
C           109.81      31.91       -41.38      
C           108.51      29.54       -40.57      
C           107.78      30.83       -40.62      
C           107.8       28.43       -40.24      
C           108.47      31.96       -41.12      
C           107.77      33.19       -41.49      
N           106.48      33.2        -40.97      
C           105.83      32.13       -40.25      
C           108.39      27.11       -40.41      
N           109.75      27.1        -40.63      
C           110.54      28.35       -40.69      
O           107.6       26.08       -40.38      
O           111.7       28.29       -40.81      
O           108.33      34.02       -42.19      
O           104.69      32.41       -39.77      
C           105.64      34.33       -41.48      
C           110.42      25.8        -40.42      
H           104.61      34.25       -41.33      
H           105.57      34.36       -42.6       
H           105.87412   35.32324    -41.09689   
H           111.22      25.67       -41.16      
H           109.8       24.91       -40.44      
H           110.97544   25.78557    -39.48225   
H           110.4       32.85       -41.59      
H           105.83      27.57       -39.77      
C           106.41      28.43       -39.9       
C           106.39      30.74       -40.31      
C           105.62      29.66       -39.8       
C           114.24      31.57       -42.4       
C           114.32      31.3        -41.03      
S           112.58      31.56       -42.85      
H           112.72      30.87       -39.34      
H           115.21      30.98       -40.5       
C           113.01      31.18       -40.42      
C           111.95      31.15       -41.31      
C           117.2       33.06       -44.34      
C           116.25      32.66       -45.22      
S           116.61      32.66       -42.71      
H           114.22      31.74       -45.1       
H           116.35      32.86       -46.36      
C           115.16      32.03       -44.64      
C           115.27      31.84       -43.35      
C           119.89      35.77       -44.94      
C           120.35      34.86       -43.93      
S           118.3       35.24       -45.33      
H           119.91      32.96       -43.06      
H           121.31      34.9        -43.47      
C           119.61      33.73       -43.69      
C           118.41      33.86       -44.43      
C           122.55      41.39       -47.18      
C           121.73      40.46       -47.8       
C           122.86      41.21       -45.8       
C           121.25      39.45       -46.97      
C           121.54      39.29       -45.58      
C           120.36      38.43       -47.56      
C           122.41      40.16       -44.98      
C           122.75      40.11       -43.52      
N           122.21      39.1        -42.75      
C           121.38      38.19       -43.35      
C           119.85      38.61       -48.92      
N           120.4       39.6        -49.74      
C           121.49      40.55       -49.27      
O           118.88      37.95       -49.24      
O           122.1       41.3        -50.05      
O           123.58      40.93       -43.14      
O           121.04      37.28       -42.58      
C           123.09      38.54       -41.68      
C           120.12      39.67       -51.15      
H           124.11      38.51       -42.06      
H           122.96      37.46       -41.53      
H           123.15222   39.18294    -40.80201   
H           119.99      40.68       -51.47      
H           119.21      39.12       -51.26      
H           120.82148   39.10593    -51.7647    
H           123.61      41.74       -45.32      
H           119.25      36.69       -47.36      
C           119.8       37.38       -46.73      
C           121.07      38.2        -44.83      
C           120.32      37.15       -45.43      
C           124.79      44.46       -48.6       
C           123.61      44.94       -48.17      
S           124.78      42.7        -48.45      
H           121.76      44.24       -47.13      
H           123.47      46.04       -48.13      
C           122.67      43.93       -47.67      
C           123.2       42.69       -47.78      
C           127.29      46.67       -50.79      
C           128.0       45.84       -50.0       
S           125.58      46.42       -50.54      
H           127.71      44.02       -48.72      
H           129.08      45.9        -49.99      
C           127.23      44.83       -49.35      
C           125.83      45.06       -49.41      
C           129.36      48.74       -53.42      
C           128.03      49.08       -53.52      
S           129.47      47.73       -52.0       
H           125.99      48.53       -52.58      
H           127.66      49.68       -54.37      
C           127.05      48.46       -52.59      
C           127.79      47.72       -51.68      
C           134.79      51.6        -56.17      
C           133.7       52.13       -55.56      
C           134.86      50.18       -56.01      
C           132.72      51.25       -54.91      
C           132.77      49.84       -54.96      
C           131.52      51.8        -54.45      
C           133.99      49.34       -55.41      
C           134.35      47.93       -55.43      
N           133.37      46.99       -54.88      
C           132.04      47.45       -54.59      
C           131.21      53.3        -54.27      
N           132.26      54.07       -54.84      
C           133.42      53.58       -55.52      
O           130.31      53.72       -53.65      
O           134.23      54.44       -55.97      
O           135.48      47.55       -55.7       
O           131.33      46.58       -54.17      
C           133.52      45.51       -55.13      
C           132.16      55.45       -54.91      
H           133.9       45.31       -56.14      
H           132.5       45.06       -55.35      
H           134.08071   45.08037    -54.29986   
H           133.09      55.89       -54.58      
H           131.46      55.91       -54.25      
H           131.70023   55.77328    -55.84392   
H           135.82      49.81       -56.3       
H           129.85      51.46       -53.32      
C           130.6       50.89       -53.91      
C           131.77      48.86       -54.56      
C           130.56      49.46       -54.02      
C           137.44      53.34       -58.43      
C           138.08      52.61       -57.59      
S           135.7       53.17       -58.32      
H           137.59      51.05       -56.06      
H           139.08      52.63       -57.45      
C           137.19      51.77       -56.81      
C           135.91      52.22       -56.89      
C           138.18      55.73       -61.25      
C           139.4       55.37       -60.78      
S           136.88      54.89       -60.55      
H           140.06      53.75       -59.32      
H           140.43      55.68       -61.12      
C           139.23      54.34       -59.83      
C           137.92      54.08       -59.52      
H           81.4        36.54       -1.63       
H           138.21      56.11       -62.23      
