512

C           77.81       38.23       2.51        
C           79.11       38.49       2.32        
S           77.18       37.42       1.14        
H           80.65       38.07       0.75        
H           79.78       39.06       2.95        
C           79.61       38.0        1.07        
C           78.68       37.39       0.25        
C           73.84       41.5        6.8         
C           74.87       41.87       5.95        
C           73.56       40.17       6.88        
C           75.56       40.92       5.17        
C           75.28       39.54       5.23        
C           76.75       41.19       4.41        
C           74.1        39.22       6.06        
C           73.61       37.81       6.16        
N           74.24       36.91       5.3         
C           75.36       37.17       4.49        
C           77.23       42.61       4.29        
N           76.52       43.52       5.0         
C           75.34       43.31       5.74        
O           78.14       42.97       3.6         
O           74.81       44.28       6.21        
O           72.73       37.44       6.98        
O           75.79       36.16       3.83        
C           73.86       35.48       5.46        
C           77.31       44.67       5.43        
H           74.8        34.89       5.27        
H           73.53       35.2        6.48        
H           73.04916    35.15993    4.80564     
H           76.69       45.5        5.77        
H           77.71       45.0        4.54        
H           78.00635    44.40271    6.22483     
H           72.77       39.93       7.57        
H           78.03       40.68       2.86        
C           77.38       40.28       3.62        
C           75.95       38.57       4.43        
C           77.02       38.94       3.57        
C           71.45       43.5        9.08        
C           72.69       43.84       9.48        
S           71.4        42.17       7.98        
H           74.75       43.32       9.01        
H           72.9        44.63       10.22       
C           73.69       43.18       8.77        
C           73.09       42.28       7.85        
C           67.77       44.61       9.82        
C           68.59       45.3        10.62       
S           68.74       43.78       8.69        
H           70.83       45.58       10.94       
H           68.19       45.95       11.4        
C           69.98       45.04       10.45       
C           70.2        44.07       9.52        
C           63.79       44.67       9.88        
C           64.25       43.66       9.06        
S           65.13       45.59       10.47       
H           66.16       42.85       8.36        
H           63.59       43.02       8.53        
C           65.68       43.59       8.95        
C           66.32       44.54       9.72        
C           57.16       44.86       10.89       
C           58.31       45.2        11.67       
C           57.38       44.54       9.55        
C           59.58       45.08       11.15       
C           59.82       44.73       9.83        
C           60.7        45.29       11.97       
C           58.68       44.43       9.03        
C           58.77       43.95       7.71        
N           60.1        44.04       7.15        
C           61.25       44.48       7.88        
C           60.6        45.75       13.38       
N           59.32       45.87       13.88       
C           58.19       45.52       13.15       
O           61.62       45.97       14.07       
O           57.13       45.43       13.74       
O           57.78       43.59       7.07        
O           62.38       44.75       7.33        
C           60.43       43.15       6.03        
C           59.15       46.73       15.09       
H           60.1        42.13       6.23        
H           61.51       43.15       5.87        
H           59.91637    43.42822    5.10974     
H           58.21       47.35       15.04       
H           59.97       47.49       15.1        
H           59.17144    46.17246    16.02637    
H           56.62       44.35       8.89        
H           62.9        45.37       12.1        
C           61.99       45.15       11.44       
C           61.16       44.74       9.3         
C           62.33       44.83       10.09       
C           53.15       44.67       11.19       
C           53.59       45.67       11.94       
S           54.53       43.88       10.46       
H           55.48       46.66       12.38       
H           52.94       46.07       12.63       
C           54.99       45.88       11.83       
C           55.68       44.99       11.07       
C           49.99       42.53       10.55       
C           49.74       43.28       11.67       
S           51.58       42.85       9.95        
H           50.83       44.8        12.76       
H           48.83       43.18       12.32       
C           50.86       44.09       11.95       
C           51.91       43.97       11.14       
C           48.93       39.48       8.44        
C           47.83       39.89       9.17        
S           50.25       40.55       8.7         
H           47.39       41.44       10.71       
H           46.82       39.47       9.12        
C           48.1        40.99       10.02       
C           49.36       41.36       9.93        
C           49.43       34.66       3.94        
C           50.01       34.82       5.17        
C           48.42       35.56       3.58        
C           49.55       35.94       5.96        
C           48.55       36.85       5.57        
C           50.21       36.18       7.2         
C           47.99       36.59       4.29        
C           46.99       37.5        3.66        
N           46.51       38.51       4.53        
C           47.14       38.84       5.8         
C           51.38       35.37       7.69        
N           51.79       34.33       6.84        
C           51.1        33.93       5.72        
O           51.87       35.69       8.77        
O           51.47       32.87       5.21        
O           46.55       37.33       2.53        
O           46.75       39.81       6.41        
C           45.6        39.53       4.0         
C           53.07       33.56       7.11        
H           46.07       39.84       3.11        
H           45.61       40.39       4.55        
H           44.59815    39.13642    3.82825     
H           52.9        32.48       7.09        
H           53.28       33.76       8.19        
H           53.9147     33.79037    6.46077     
H           47.96       35.52       2.58        
H           50.59       37.5        8.77        
C           49.9        37.31       7.95        
C           48.2        37.91       6.41        
C           48.92       38.25       7.57        
C           50.77       32.05       1.16        
C           49.39       31.89       1.39        
S           51.27       33.4        2.19        
H           47.77       32.79       2.58        
H           48.78       31.08       1.0         
C           48.8        32.9        2.28        
C           49.7        33.62       2.95        
C           53.74       29.58       0.28        
C           52.55       28.91       0.02        
S           53.42       31.22       0.71        
H           50.43       29.46       0.14        
H           52.54       27.82       -0.32       
C           51.44       29.74       0.28        
C           51.7        31.06       0.64        
C           57.0        28.05       -1.32       
C           57.37       28.94       -0.32       
S           55.3        27.85       -1.31       
H           56.27       30.29       1.07        
H           58.41       29.23       -0.15       
C           56.22       29.64       0.26        
C           55.03       29.17       -0.14       
C           61.46       24.35       -4.52       
C           61.06       24.44       -3.21       
C           60.71       25.14       -5.44       
C           60.04       25.37       -2.86       
C           59.36       26.16       -3.77       
C           59.63       25.48       -1.52       
C           59.63       25.92       -5.14       
C           58.94       26.61       -6.2        
N           57.93       27.62       -5.83       
C           57.61       27.84       -4.47       
C           60.04       24.58       -0.44       
N           61.1        23.75       -0.87       
C           61.54       23.5        -2.18       
O           59.61       24.66       0.69        
O           62.34       22.65       -2.5        
O           59.21       26.3        -7.34       
O           56.74       28.54       -4.16       
C           57.48       28.53       -6.93       
C           61.84       22.9        0.15        
H           58.34       28.86       -7.45       
H           57.01       29.42       -6.46       
H           56.75674    28.11466    -7.63178    
H           62.41       22.06       -0.24       
H           61.13       22.4        0.77        
H           62.52995    23.4645     0.77722     
H           60.99       25.05       -6.49       
H           58.46       26.51       -0.11       
C           58.7        26.46       -1.13       
C           58.27       27.03       -3.4        
C           57.94       27.19       -2.06       
C           64.59       22.97       -6.52       
C           63.81       21.85       -6.17       
S           63.83       24.39       -5.93       
H           61.89       21.53       -4.97       
H           64.19       20.83       -6.44       
C           62.64       22.19       -5.4        
C           62.5        23.54       -5.21       
C           67.55       24.21       -8.83       
C           67.86       22.92       -8.36       
S           65.92       24.58       -8.32       
H           67.11       21.52       -6.88       
H           68.87       22.57       -8.45       
C           66.89       22.4        -7.49       
C           65.78       23.15       -7.34       
C           69.77       26.18       -11.42      
C           69.43       26.95       -10.33      
S           68.82       24.7        -11.23      
H           68.55       26.79       -8.31       
H           69.96       27.86       -10.03      
C           68.65       26.34       -9.29       
C           68.28       25.1        -9.66       
C           74.04       27.7        -16.26      
C           73.16       28.46       -15.55      
C           74.04       26.31       -16.02      
C           72.31       27.92       -14.59      
C           72.28       26.49       -14.36      
C           71.43       28.65       -13.79      
C           73.2        25.73       -15.14      
C           73.42       24.24       -15.04      
N           72.62       23.6        -14.1       
C           71.75       24.32       -13.23      
C           71.22       30.15       -13.97      
N           72.08       30.68       -15.02      
C           73.02       29.93       -15.76      
O           70.53       30.84       -13.24      
O           73.62       30.61       -16.59      
O           74.31       23.71       -15.71      
O           71.24       23.69       -12.33      
C           72.17       22.28       -14.5       
C           71.72       32.06       -15.52      
H           71.79       22.45       -15.49      
H           71.32       22.07       -13.95      
H           72.93692    21.51308    -14.39147   
H           72.68       32.57       -15.65      
H           71.16       32.53       -14.8       
H           71.06667    32.01082    -16.39111   
H           74.77       25.77       -16.53      
H           69.93       28.6        -12.25      
C           70.68       28.01       -12.81      
C           71.55       25.81       -13.31      
C           70.75       26.62       -12.51      
C           76.75       28.68       -18.85      
C           75.48       28.84       -19.43      
S           76.69       27.88       -17.29      
H           73.43       28.52       -18.76      
H           75.38       29.26       -20.39      
C           74.49       28.52       -18.53      
C           74.95       28.04       -17.34      
C           80.36       28.9        -20.38      
C           79.56       29.79       -21.03      
S           79.44       28.04       -19.21      
H           77.48       30.54       -20.75      
H           79.87       30.41       -21.81      
C           78.3        29.9        -20.4       
C           78.07       29.05       -19.39      
C           84.3        28.97       -20.23      
C           83.89       27.71       -20.43      
S           82.86       29.97       -20.3       
H           82.0        26.57       -20.93      
H           84.59       26.91       -20.45      
C           82.48       27.48       -20.5       
C           81.8        28.66       -20.47      
C           89.78       31.97       -18.62      
C           89.04       31.9        -19.82      
C           89.3        31.13       -17.55      
C           87.93       31.02       -19.88      
C           87.57       30.1        -18.83      
C           87.2        30.9        -21.06      
C           88.31       30.25       -17.61      
C           87.92       29.62       -16.38      
N           86.86       28.7        -16.51      
C           86.11       28.47       -17.69      
C           87.36       31.79       -22.25      
N           88.64       32.5        -22.21      
C           89.43       32.6        -21.06      
O           86.79       31.52       -23.32      
O           90.41       33.29       -21.07      
O           88.7        29.65       -15.42      
O           85.29       27.58       -17.61      
C           87.11       27.46       -15.7       
C           88.87       33.52       -23.28      
H           88.16       27.37       -15.5       
H           87.0        26.59       -16.27      
H           86.58667    27.5873     -14.75236   
H           88.96       34.47       -22.75      
H           87.98       33.39       -23.89      
H           89.81423    33.42135    -23.81553   
H           89.74       31.27       -16.59      
H           85.52       29.99       -21.98      
C           86.12       30.08       -21.04      
C           86.45       29.26       -18.88      
C           85.7        29.34       -19.98      
C           93.15       33.24       -17.15      
C           92.08       33.79       -16.42      
S           92.54       32.56       -18.59      
H           89.87       33.75       -16.61      
H           92.17       34.3        -15.48      
C           90.83       33.52       -17.02      
C           90.85       32.84       -18.17      
C           96.94       33.79       -17.46      
C           96.62       34.1        -16.2       
S           95.58       33.23       -18.32      
H           94.85       33.95       -14.81      
H           97.33       34.61       -15.6       
C           95.24       33.82       -15.83      
C           94.56       33.38       -16.93      
C           99.78       34.22       -20.09      
C           100.38      33.98       -18.93      
S           98.09       34.29       -19.83      
H           99.86       33.53       -16.88      
H           101.43      33.86       -18.81      
C           99.5        33.71       -17.85      
C           98.22       33.9        -18.17      
C           100.99      36.38       -26.14      
C           101.61      36.66       -24.92      
C           100.17      35.26       -26.16      
C           101.29      35.95       -23.76      
C           100.35      34.88       -23.79      
C           101.78      36.29       -22.48      
C           99.82       34.5        -25.07      
C           99.04       33.33       -25.28      
N           98.68       32.57       -24.13      
C           99.1        32.98       -22.88      
C           102.61      37.49       -22.27      
N           102.99      38.15       -23.45      
C           102.67      37.73       -24.74      
O           103.04      37.89       -21.16      
O           103.16      38.21       -25.69      
O           98.81       32.9        -26.36      
O           99.04       32.16       -22.04      
C           97.48       31.66       -24.17      
C           103.82      39.35       -23.36      
H           96.67       32.03       -24.77      
H           97.1        31.55       -23.17      
H           97.76345    30.73172    -24.66603   
H           104.81      39.11       -23.69      
H           103.94      39.56       -22.26      
H           103.33879   40.2368     -23.77246   
H           99.83       34.92       -27.1       
H           101.35      36.2        -20.35      
C           101.33      35.67       -21.3       
C           99.99       34.21       -22.63      
C           100.42      34.6        -21.36      
C           100.36      38.39       -29.4       
C           100.83      37.19       -29.69      
S           100.4       38.64       -27.71      
H           101.47      35.32       -28.64      
H           101.08      36.88       -30.71      
C           101.19      36.39       -28.55      
C           101.03      37.07       -27.42      
C           100.04      40.91       -32.31      
C           99.63       41.53       -31.15      
S           100.4       39.24       -31.97      
H           99.28       41.14       -29.06      
H           99.4        42.56       -31.13      
C           99.49       40.67       -30.02      
C           99.96       39.43       -30.24      
C           100.95      43.32       -35.25      
C           101.33      42.02       -35.57      
S           100.32      43.36       -33.67      
H           101.34      40.05       -34.54      
H           101.86      41.81       -36.52      
C           101.0       41.04       -34.56      
C           100.39      41.61       -33.51      
C           101.08      48.58       -39.13      
C           100.41      47.4        -39.24      
C           101.93      48.83       -38.09      
C           100.64      46.46       -38.21      
C           101.54      46.66       -37.14      
C           100.06      45.16       -38.27      
C           102.13      47.96       -37.06      
C           102.93      48.38       -35.85      
N           103.14      47.38       -34.89      
C           102.62      46.05       -35.02      
C           99.17       44.75       -39.38      
N           99.0        45.64       -40.38      
C           99.56       46.96       -40.41      
O           98.75       43.57       -39.45      
O           99.44       47.67       -41.38      
O           103.32      49.55       -35.76      
O           102.92      45.15       -34.2       
C           103.76      47.66       -33.58      
C           98.36       45.22       -41.68      
H           103.94      46.73       -33.0       
H           103.08      48.34       -33.01      
H           104.75993   48.08251    -33.67859   
H           97.76       46.12       -42.0       
H           97.68       44.34       -41.47      
H           99.09756    44.98398    -42.44707   
H           102.56      49.72       -38.15      
H           99.84       43.23       -37.37      
C           100.3       44.26       -37.26      
C           101.78      45.69       -36.18      
C           101.14      44.45       -36.18      
C           101.11      51.38       -41.83      
C           99.79       51.34       -41.39      
S           102.17      50.51       -40.84      
H           98.66       50.02       -40.01      
H           99.01       51.95       -41.84      
C           99.63       50.34       -40.4       
C           100.84      49.83       -39.96      
C           103.48      52.92       -44.56      
C           102.24      53.02       -45.09      
S           103.48      52.18       -42.95      
H           100.2       52.56       -44.31      
H           102.06      53.41       -46.13      
C           101.24      52.59       -44.12      
C           101.75      52.09       -42.92      
C           107.17      53.64       -45.37      
C           106.63      53.16       -46.55      
S           105.91      53.95       -44.17      
H           104.71      52.4        -47.28      
H           107.2       53.02       -47.43      
C           105.26      52.9        -46.46      
C           104.74      53.19       -45.17      
C           113.51      55.35       -45.44      
C           112.79      54.23       -44.98      
C           112.76      56.43       -45.91      
C           111.41      54.26       -44.87      
C           110.66      55.27       -45.49      
C           110.74      53.13       -44.57      
C           111.36      56.36       -46.01      
C           110.73      57.55       -46.61      
N           109.33      57.43       -46.64      
C           108.56      56.29       -46.33      
C           111.35      51.93       -43.96      
N           112.73      52.01       -43.84      
C           113.55      53.0        -44.47      
O           110.71      50.99       -43.43      
O           114.76      52.85       -44.7       
O           111.25      58.61       -46.85      
O           107.37      56.33       -46.58      
C           108.55      58.55       -47.16      
C           113.41      50.93       -43.12      
H           107.57      58.32       -47.57      
H           109.02      58.92       -48.07      
H           108.44633   59.33095    -46.40669   
H           114.37      50.7        -43.61      
H           112.74      50.06       -43.11      
H           113.70462   51.28074    -42.13092   
H           113.28      57.2        -46.4       
H           108.95      52.17       -44.41      
C           109.36      53.11       -44.72      
C           109.27      55.19       -45.67      
C           108.56      54.07       -45.24      
C           117.19      56.87       -45.46      
C           117.04      56.01       -46.51      
S           115.68      56.81       -44.54      
H           115.47      54.77       -47.4       
H           117.79      55.97       -47.27      
C           115.78      55.34       -46.56      
C           114.94      55.62       -45.52      
C           119.8       59.1        -43.54      
C           120.35      58.4        -44.52      
S           118.06      58.76       -43.61      
H           119.83      57.13       -46.29      
H           121.42      58.56       -44.69      
C           119.54      57.71       -45.41      
C           118.26      57.73       -44.99      
C           122.03      61.08       -40.87      
C           120.67      61.27       -40.64      
S           122.2       60.15       -42.32      
H           118.72      60.77       -41.55      
H           120.25      61.93       -39.85      
C           119.83      60.64       -41.52      
C           120.47      59.88       -42.5       
C           127.63      63.56       -38.53      
C           126.45      64.12       -38.88      
C           127.71      62.15       -38.67      
C           125.37      63.33       -39.24      
C           125.39      61.91       -39.28      
C           124.13      63.92       -39.52      
C           126.65      61.35       -38.99      
C           126.9       59.92       -39.2       
N           125.69      59.12       -39.4       
C           124.46      59.62       -39.78      
C           123.83      65.41       -39.42      
N           124.93      66.14       -39.01      
C           126.16      65.56       -38.63      
O           122.66      65.83       -39.6       
O           127.02      66.32       -38.2       
O           127.99      59.49       -39.04      
O           123.56      58.82       -39.92      
C           125.91      57.66       -39.75      
C           124.89      67.56       -39.25      
H           126.72      57.76       -40.54      
H           125.14      57.15       -40.2       
H           126.31987   57.13508    -38.88712   
H           125.48      68.0        -38.5       
H           123.85      67.84       -39.16      
H           125.20931   67.80295    -40.26347   
H           128.65      61.69       -38.4       
H           122.1       63.63       -40.28      
C           123.01      63.1        -39.86      
C           124.29      61.11       -39.7       
C           123.05      61.69       -39.99      
C           131.0       64.57       -36.79      
C           130.77      65.42       -37.83      
S           129.71      63.4        -36.7       
H           129.28      65.76       -39.44      
H           131.46      66.17       -38.11      
C           129.59      65.16       -38.61      
C           128.9       64.09       -38.09      
C           134.27      65.04       -34.95      
C           133.78      63.88       -34.51      
S           133.05      65.88       -35.83      
H           132.23      62.51       -35.24      
H           134.32      63.2        -33.79      
C           132.64      63.47       -35.23      
C           132.11      64.47       -35.94      
H           79.01       36.63       -0.44       
H           135.28      65.05       -35.34      
