512

C           70.09       3.47        32.19       
C           70.44       4.77        32.26       
S           71.51       2.5         32.43       
H           72.28       5.92        32.74       
H           69.82       5.64        31.99       
C           71.76       4.96        32.63       
C           72.54       3.83        32.59       
C           63.68       2.34        31.27       
C           64.64       2.89        30.45       
C           63.94       2.05        32.64       
C           66.02       3.04        30.97       
C           66.31       2.59        32.26       
C           67.06       3.52        30.12       
C           65.23       2.16        33.09       
C           65.49       1.78        34.54       
N           66.83       1.92        34.99       
C           67.94       2.34        34.19       
C           66.83       3.87        28.71       
N           65.48       3.83        28.24       
C           64.4        3.35        28.98       
O           67.68       4.34        27.94       
O           63.3        3.24        28.4        
O           64.55       1.3         35.27       
O           69.07       2.23        34.54       
C           67.17       1.96        36.46       
C           65.24       4.01        26.78       
H           67.9        2.77        36.68       
H           66.33       2.21        37.08       
H           67.34829    0.96159     36.85936    
H           64.66       3.2         26.36       
H           66.13       3.99        26.24       
H           64.80336    4.97337     26.51663    
H           63.17       1.71        33.25       
H           69.03       3.85        29.9        
C           68.33       3.55        30.63       
C           67.65       2.73        32.79       
C           68.68       3.13        31.9        
C           59.87       1.19        30.64       
C           59.99       2.49        30.24       
S           61.4        0.67        31.33       
H           61.51       4.04        30.11       
H           59.14       3.04        29.81       
C           61.26       3.02        30.44       
C           62.18       2.16        31.05       
C           57.04       -1.41       31.22       
C           56.57       -0.16       31.11       
S           58.78       -1.34       31.1        
H           57.19       1.86        30.51       
H           55.59       0.18        31.32       
C           57.51       0.8         30.57       
C           58.75       0.3         30.58       
C           54.35       -3.76       32.81       
C           55.45       -4.51       32.5        
S           54.72       -2.11       32.46       
H           57.37       -4.34       31.5        
H           55.48       -5.59       32.74       
C           56.52       -3.85       31.91       
C           56.27       -2.49       31.77       
C           48.73       -5.89       35.62       
C           49.71       -4.93       35.93       
C           49.01       -6.59       34.46       
C           50.83       -4.66       35.09       
C           51.08       -5.38       33.89       
C           51.76       -3.62       35.36       
C           50.1        -6.4        33.67       
C           50.28       -7.42       32.6        
N           51.48       -7.31       31.83       
C           52.34       -6.19       31.85       
C           51.75       -2.86       36.63       
N           50.69       -3.23       37.56       
C           49.65       -4.28       37.28       
O           52.69       -2.09       36.83       
O           48.73       -4.39       38.12       
O           49.46       -8.35       32.46       
O           53.38       -6.11       31.15       
C           51.87       -8.42       31.02       
C           50.76       -2.58       38.9        
H           52.76       -8.23       30.49       
H           51.12       -8.63       30.27       
H           52.05399    -9.26919    31.67812    
H           49.79       -2.51       39.39       
H           51.08       -1.63       38.66       
H           51.39016    -3.15221    39.58086    
H           48.42       -7.47       34.26       
H           53.53       -2.62       34.81       
C           52.83       -3.37       34.48       
C           52.27       -5.27       33.09       
C           53.13       -4.2        33.41       
C           45.3        -6.78       37.47       
C           45.21       -5.48       36.92       
S           46.92       -7.46       37.17       
H           46.56       -4.18       35.72       
H           44.29       -4.84       37.0        
C           46.39       -5.12       36.16       
C           47.39       -6.06       36.23       
C           42.48       -8.97       39.19       
C           42.44       -7.66       39.75       
S           43.93       -9.14       38.17       
H           43.65       -5.81       39.44       
H           41.68       -7.44       40.52       
C           43.42       -6.82       39.13       
C           44.29       -7.45       38.24       
C           40.54       -12.36      39.65       
C           40.32       -11.57      40.75       
S           41.39       -11.5       38.44       
H           40.81       -9.47       41.35       
H           39.87       -11.93      41.64       
C           40.93       -10.27      40.66       
C           41.6        -10.08      39.5        
C           39.16       -18.85      39.42       
C           40.13       -18.06      40.12       
C           38.28       -18.19      38.53       
C           40.14       -16.62      39.9        
C           39.23       -15.97      39.1        
C           41.06       -15.8       40.66       
C           38.27       -16.8       38.43       
C           37.28       -16.29      37.43       
N           37.2        -14.9       37.41       
C           38.08       -14.01      38.13       
C           42.07       -16.38      41.52       
N           42.13       -17.76      41.69       
C           41.18       -18.65      41.05       
O           42.87       -15.66      42.19       
O           41.07       -19.82      41.53       
O           36.45       -17.03      36.91       
O           38.13       -12.81      37.9        
C           35.92       -14.34      36.85       
C           43.11       -18.45      42.56       
H           35.94       -13.26      36.93       
H           35.08       -14.68      37.46       
H           35.76715    -14.56233   35.79392    
H           42.6        -19.02      43.27       
H           43.56       -17.79      43.23       
H           43.9242     -18.9694    42.05463    
H           37.52       -18.76      38.0        
H           41.58       -13.85      41.3        
C           41.01       -14.4       40.6        
C           39.26       -14.59      38.94       
C           40.24       -13.8       39.67       
C           39.07       -22.76      39.32       
C           37.9        -22.34      39.74       
S           40.17       -21.43      39.04       
H           36.85       -20.49      40.06       
H           37.08       -23.04      40.03       
C           37.78       -20.95      39.8        
C           38.92       -20.27      39.46       
C           40.9        -26.05      38.27       
C           39.75       -26.36      38.94       
S           41.07       -24.31      38.31       
H           37.98       -25.32      39.87       
H           39.51       -27.4       39.16       
C           38.88       -25.25      39.28       
C           39.53       -24.12      39.06       
C           44.41       -27.26      37.01       
C           43.95       -28.18      37.97       
S           43.18       -26.0       36.87       
H           42.22       -28.62      39.2        
H           44.65       -28.96      38.25       
C           42.61       -27.92      38.44       
C           42.07       -26.79      37.89       
C           50.37       -25.63      34.72       
C           49.88       -25.93      35.99       
C           49.45       -25.69      33.67       
C           48.54       -26.31      36.2        
C           47.72       -26.54      35.09       
C           48.02       -26.57      37.49       
C           48.17       -26.16      33.8        
C           47.33       -26.24      32.56       
N           46.04       -26.83      32.72       
C           45.46       -27.02      34.0        
C           48.88       -26.53      38.7        
N           50.19       -26.25      38.45       
C           50.76       -25.88      37.23       
O           48.44       -26.75      39.8        
O           51.92       -25.7       37.26       
O           47.84       -25.83      31.49       
O           44.25       -27.35      33.94       
C           45.17       -26.99      31.56       
C           51.23       -26.46      39.52       
H           44.69       -26.06      31.28       
H           44.48       -27.74      31.89       
H           45.66329    -27.51231   30.74027    
H           52.13       -27.02      39.16       
H           50.86       -27.15      40.2        
H           51.40435    -25.55919   40.10843    
H           49.68       -25.21      32.79       
H           46.29       -26.99      38.68       
C           46.67       -26.89      37.68       
C           46.34       -26.95      35.25       
C           45.83       -27.18      36.54       
C           53.51       -24.1       32.9        
C           53.53       -23.67      34.2        
S           52.34       -25.42      32.73       
H           52.32       -23.9       35.98       
H           54.32       -23.04      34.57       
C           52.44       -24.2       34.97       
C           51.63       -25.0       34.26       
C           56.1        -22.42      30.58       
C           55.07       -22.85      29.78       
S           55.81       -22.95      32.22       
H           53.05       -23.78      30.11       
H           54.92       -22.59      28.76       
C           54.02       -23.46      30.53       
C           54.32       -23.67      31.8        
C           59.12       -19.94      29.36       
C           59.53       -20.88      30.2        
S           57.45       -20.48      29.02       
H           58.93       -22.62      31.41       
H           60.51       -20.74      30.7        
C           58.62       -21.83      30.71       
C           57.35       -21.68      30.25       
C           62.9        -15.01      27.16       
C           62.72       -16.34      26.8        
C           62.13       -14.61      28.26       
C           61.8        -17.19      27.43       
C           61.09       -16.79      28.59       
C           61.67       -18.55      27.09       
C           61.28       -15.43      28.96       
C           60.59       -14.87      30.16       
N           59.84       -15.8       30.92       
C           59.57       -17.12      30.52       
C           62.36       -19.1       25.93       
N           63.25       -18.23      25.26       
C           63.38       -16.9       25.55       
O           62.16       -20.24      25.63       
O           64.03       -16.22      24.78       
O           60.69       -13.69      30.44       
O           58.76       -17.73      31.18       
C           59.5        -15.37      32.32       
C           63.85       -18.66      24.01       
H           58.98       -16.08      32.93       
H           58.72       -14.58      32.27       
H           60.32655    -14.94948   32.89278    
H           63.62       -17.93      23.19       
H           63.32       -19.55      23.56       
H           64.92288    -18.84451   24.06467    
H           62.16       -13.6       28.66       
H           60.6        -20.29      27.31       
C           60.7        -19.33      27.72       
C           60.21       -17.62      29.27       
C           60.0        -18.94      28.81       
C           64.59       -11.99      25.14       
C           64.74       -11.71      26.45       
S           63.64       -13.38      24.94       
H           64.21       -12.63      28.34       
H           65.28       -10.82      26.69       
C           64.18       -12.76      27.27       
C           63.64       -13.85      26.61       
C           67.44       -10.54      23.03       
C           66.26       -10.33      22.38       
S           67.14       -11.43      24.5        
H           64.18       -10.99      22.51       
H           66.26       -9.82       21.41       
C           65.15       -10.99      22.94       
C           65.42       -11.43      24.17       
C           71.25       -10.38      22.2        
C           70.69       -9.2        21.91       
S           70.07       -11.42      22.97       
H           68.68       -8.22       22.09       
H           71.18       -8.42       21.39       
C           69.28       -9.15       22.16       
C           68.8        -10.26      22.66       
C           77.32       -12.46      20.92       
C           76.42       -11.83      20.1        
C           77.06       -12.49      22.28       
C           75.18       -11.49      20.7        
C           74.85       -11.62      22.13       
C           74.17       -10.92      19.86       
C           75.88       -12.19      22.86       
C           75.75       -12.43      24.35       
N           74.53       -12.09      24.87       
C           73.5        -11.25      24.22       
C           74.26       -10.81      18.39       
N           75.48       -11.14      17.96       
C           76.56       -11.68      18.66       
O           73.34       -10.29      17.75       
O           77.57       -11.99      18.07       
O           76.61       -12.87      25.08       
O           72.58       -10.76      24.89       
C           74.22       -12.53      26.25       
C           75.75       -11.01      16.52       
H           73.22       -12.17      26.58       
H           74.84       -12.01      26.97       
H           74.11194    -13.61058   26.34365    
H           76.82       -10.75      16.22       
H           75.18       -10.15      16.14       
H           75.47622    -11.88897   15.93642    
H           77.81       -12.89      22.93       
H           72.16       -10.4       19.77       
C           72.97       -10.64      20.43       
C           73.61       -11.17      22.68       
C           72.64       -10.7       21.81       
C           81.13       -13.24      20.17       
C           80.31       -14.33      19.87       
S           80.12       -11.94      20.75       
H           78.1        -14.83      19.86       
H           80.7        -15.27      19.39       
C           78.92       -14.13      20.09       
C           78.65       -12.91      20.6        
C           84.68       -13.23      18.57       
C           84.8        -12.81      19.85       
S           83.01       -13.37      18.17       
H           83.51       -12.58      21.63       
H           85.76       -12.78      20.3        
C           83.58       -12.72      20.54       
C           82.48       -13.08      19.79       
C           87.87       -14.21      16.66       
C           86.82       -14.19      15.73       
S           87.27       -13.73      18.2        
H           84.67       -13.82      15.72       
H           86.97       -14.43      14.66       
C           85.57       -13.92      16.3        
C           85.67       -13.65      17.62       
C           94.09       -15.9       15.39       
C           93.19       -16.24      16.43       
C           93.71       -14.85      14.58       
C           91.87       -15.73      16.35       
C           91.53       -14.72      15.41       
C           90.91       -16.1       17.23       
C           92.51       -14.25      14.54       
C           92.29       -13.46      13.31       
N           91.03       -12.84      13.27       
C           89.99       -13.24      14.25       
C           91.19       -17.05      18.37       
N           92.47       -17.6       18.44       
C           93.45       -17.26      17.48       
O           90.31       -17.3       19.23       
O           94.41       -18.04      17.48       
O           93.2        -13.25      12.59       
O           88.86       -12.76      14.14       
C           90.66       -12.16      12.01       
C           92.87       -18.42      19.66       
H           89.51       -12.05      11.97       
H           91.1        -12.72      11.2        
H           91.05247    -11.14672   12.09563    
H           93.03       -19.49      19.44       
H           91.93       -18.5       20.26       
H           93.55995    -17.83786   20.27089    
H           94.46       -14.48      13.89       
H           88.97       -15.79      18.0        
C           89.67       -15.49      17.25       
C           90.2        -14.27      15.3        
C           89.29       -14.56      16.31       
C           97.7        -17.14      14.39       
C           97.75       -17.02      15.71       
S           96.17       -16.79      13.73       
H           96.3        -16.37      17.27       
H           98.67       -17.22      16.31       
C           96.5        -16.53      16.21       
C           95.51       -16.25      15.22       
C           99.85       -18.6       11.42       
C           100.33      -19.12      12.63       
S           98.58       -17.42      11.72       
H           99.98       -18.64      14.83       
H           101.19      -19.7       12.7        
C           99.66       -18.51      13.78       
C           98.63       -17.66      13.47       
C           101.53      -17.61      8.05        
C           101.79      -18.96      8.23        
S           100.67      -17.04      9.45        
H           101.3       -20.59      9.57        
H           102.47      -19.53      7.59        
C           101.23      -19.55      9.44        
C           100.46      -18.62      10.13       
C           105.25      -12.92      5.08        
C           105.55      -14.11      5.79        
C           103.84      -12.77      4.8         
C           104.48      -14.98      6.22        
C           103.07      -14.76      6.01        
C           104.77      -16.28      6.81        
C           102.83      -13.55      5.29        
C           101.48      -13.15      4.91        
N           100.5       -14.01      5.46        
C           100.67      -15.22      6.2         
C           106.15      -16.67      7.28        
N           107.14      -15.7       6.88        
C           106.95      -14.53      6.07        
O           106.4       -17.77      7.82        
O           107.94      -13.87      5.87        
O           101.17      -12.1       4.35        
O           99.71       -15.75      6.62        
C           99.1        -13.51      5.32        
C           108.51      -15.93      7.28        
H           98.94       -12.42      5.3         
H           98.51       -13.71      6.23        
H           98.60118    -14.01595   4.49338     
H           109.21      -15.8       6.46        
H           108.44      -16.95      7.43        
H           108.76102   -15.37915   8.18645     
H           103.56      -11.98      4.12        
H           104.0       -17.86      7.84        
C           103.71      -17.03      7.21        
C           102.06      -15.64      6.45        
C           102.38      -16.75      7.21        
C           107.65      -11.15      2.34        
C           106.53      -10.41      2.57        
S           107.57      -12.57      3.32        
H           104.78      -10.47      3.83        
H           106.36      -9.49       2.11        
C           105.63      -10.95      3.51        
C           106.09      -12.11      4.13        
C           110.61      -9.78       0.31        
C           110.43      -11.1       -0.03       
S           109.46      -9.22       1.47        
H           109.28      -12.78      0.69        
H           111.09      -11.52      -0.69       
C           109.45      -11.73      0.75        
C           108.85      -10.82      1.6         
C           113.53      -7.61       -1.02       
C           112.75      -8.06       -2.06       
S           112.59      -7.79       0.44        
H           111.25      -9.54       -2.3        
H           113.05      -8.01       -3.11       
C           111.77      -8.91       -1.64       
C           111.52      -8.94       -0.36       
C           119.54      -5.08       -2.25       
C           118.25      -4.81       -2.74       
C           119.67      -6.15       -1.37       
C           117.1       -5.48       -2.17       
C           117.25      -6.58       -1.28       
C           115.81      -5.12       -2.58       
C           118.61      -6.85       -0.87       
C           118.95      -7.91       0.09        
N           117.79      -8.5        0.73        
C           116.44      -8.3        0.29        
C           115.57      -3.98       -3.54       
N           116.7       -3.26       -4.0        
C           118.03      -3.6        -3.63       
O           114.47      -3.65       -3.79       
O           118.94      -2.91       -4.08       
O           120.13      -8.12       0.41        
O           115.51      -9.05       0.72        
C           117.98      -9.76       1.37        
C           116.51      -2.21       -4.96       
H           118.91      -10.26      0.95        
H           117.15      -10.47      1.2         
H           118.09308   -9.56918    2.43719     
H           117.14      -1.36       -4.69       
H           115.49      -1.83       -4.92       
H           116.67453   -2.48422    -6.00203    
H           120.72      -6.51       -1.1        
H           113.73      -5.64       -2.51       
C           114.72      -5.91       -2.18       
C           116.11      -7.25       -0.73       
C           114.84      -6.99       -1.26       
C           123.04      -4.06       -3.71       
C           123.06      -3.72       -2.42       
S           121.52      -4.78       -4.22       
H           121.68      -3.97       -0.71       
H           123.91      -3.22       -1.97       
C           121.84      -4.09       -1.81       
C           120.85      -4.57       -2.64       
C           125.4       -2.85       -6.54       
C           126.14      -2.91       -5.44       
S           123.8       -3.49       -6.29       
H           125.82      -3.49       -3.27       
H           127.17      -2.5        -5.33       
C           125.42      -3.48       -4.31       
C           124.16      -3.75       -4.58       
C           126.06      -1.78       -10.3       
C           126.53      -0.84       -9.47       
S           125.34      -3.07       -9.39       
H           126.61      -0.35       -7.31       
H           126.95      0.04        -9.91       
C           126.4       -1.04       -8.1        
C           125.75      -2.26       -7.86       
C           126.81      -1.55       -16.9       
C           127.6       -1.22       -15.82      
C           125.52      -1.99       -16.54      
C           127.18      -1.39       -14.53      
C           125.85      -1.76       -14.16      
C           128.01      -1.15       -13.44      
C           125.03      -2.04       -15.24      
C           123.55      -2.32       -15.12      
N           123.09      -2.17       -13.82      
C           123.88      -2.02       -12.7       
C           129.47      -0.83       -13.56      
N           129.91      -0.62       -14.91      
C           129.02      -0.77       -15.99      
O           130.31      -0.64       -12.64      
O           129.39      -0.65       -17.13      
O           122.82      -2.6        -16.07      
O           123.35      -1.91       -11.6       
C           121.72      -2.7        -13.56      
C           131.2       0.02        -15.19      
H           121.5       -2.82       -12.52      
H           121.66      -3.68       -14.08      
H           120.97851   -2.02981    -13.99491   
H           131.66      -0.4        -16.11      
H           131.88      -0.31       -14.43      
H           131.12498   1.10433     -15.10816   
H           124.85      -2.32       -17.34      
H           128.26      -1.3        -11.28      
C           127.54      -1.3        -12.12      
C           125.38      -1.82       -12.81      
C           126.25      -1.69       -11.75      
C           127.09      -1.16       -20.75      
C           127.92      -2.15       -20.46      
S           126.28      -0.48       -19.35      
H           128.51      -3.24       -18.62      
H           128.47      -2.65       -21.2       
C           127.82      -2.48       -19.11      
C           127.01      -1.66       -18.37      
C           126.78      -0.35       -24.59      
C           125.54      -0.12       -24.03      
S           127.95      -0.65       -23.39      
H           124.76      0.0         -21.96      
H           124.68      0.11        -24.63      
C           125.53      -0.29       -22.6       
C           126.78      -0.65       -22.11      
H           73.55       3.96        32.29       
H           127.07      0.18        -25.55      
