512

C           62.77       2.47        41.15       
C           63.43       1.65        40.3        
S           63.76       3.76        41.8        
H           65.48       1.6         39.44       
H           63.0        0.71        39.89       
C           64.77       2.11        40.04       
C           65.12       3.21        40.78       
C           56.37       1.49        42.16       
C           57.06       2.68        41.93       
C           57.05       0.29        42.27       
C           58.48       2.54        41.74       
C           59.18       1.31        42.0        
C           59.31       3.6         41.3        
C           58.38       0.18        42.25       
C           58.97       -1.19       42.52       
N           60.37       -1.29       42.56       
C           61.21       -0.21       42.17       
C           58.78       4.9         40.85       
N           57.36       5.08        40.93       
C           56.5        4.02        41.42       
O           59.55       5.76        40.39       
O           55.26       4.11        41.41       
O           58.29       -2.12       42.8        
O           62.36       -0.4        42.17       
C           61.02       -2.57       42.83       
C           56.88       6.46        40.76       
H           60.52       -3.36       42.33       
H           62.02       -2.63       42.42       
H           61.07524    -2.8324     43.8865     
H           55.96       6.42        40.28       
H           57.62       7.02        40.15       
H           56.81616    6.93524     41.73886    
H           56.46       -0.65       42.38       
H           61.23       4.33        40.97       
C           60.65       3.42        41.14       
C           60.6        1.14        41.83       
C           61.36       2.27        41.44       
C           52.68       1.11        43.37       
C           52.73       0.74        42.0        
S           54.17       1.8         43.83       
H           54.32       0.41        40.54       
H           51.93       0.4         41.41       
C           54.06       0.83        41.47       
C           54.95       1.34        42.32       
C           49.69       0.54        45.95       
C           50.39       1.66        46.33       
S           50.43       -0.07       44.56       
H           52.05       2.91        45.6        
H           50.07       2.25        47.16       
C           51.47       1.99        45.47       
C           51.61       1.2         44.37       
C           46.97       -1.82       47.53       
C           47.1        -0.68       48.25       
S           48.16       -1.84       46.24       
H           48.2        1.28        48.16       
H           46.52       -0.45       49.1        
C           48.08       0.28        47.74       
C           48.74       -0.22       46.7        
C           41.99       -6.29       47.9        
C           42.65       -5.59       46.88       
C           42.32       -5.8        49.23       
C           43.57       -4.55       47.17       
C           43.92       -4.18       48.45       
C           44.3        -4.0        46.11       
C           43.24       -4.81       49.49       
C           43.59       -4.58       50.94       
N           44.58       -3.61       51.2        
C           45.3        -2.96       50.15       
C           44.05       -4.23       44.69       
N           42.99       -5.08       44.48       
C           42.35       -5.82       45.45       
O           44.69       -3.59       43.86       
O           41.47       -6.6        45.12       
O           42.96       -5.17       51.85       
O           46.32       -2.37       50.55       
C           44.74       -3.14       52.6        
C           42.33       -5.05       43.19       
H           43.85       -2.85       53.0        
H           45.58       -2.54       52.71       
H           45.08382    -3.97091    53.21602    
H           41.97       -6.03       42.97       
H           43.09       -4.71       42.43       
H           41.46291    -4.39221    43.1302     
H           41.84       -6.31       50.06       
H           45.9        -2.74       45.49       
C           45.38       -3.17       46.36       
C           45.04       -3.31       48.72       
C           45.81       -2.75       47.64       
C           40.34       -9.92       47.44       
C           39.61       -9.18       48.32       
S           41.65       -8.94       46.83       
H           39.87       -7.25       49.38       
H           38.78       -9.71       48.86       
C           40.16       -7.93       48.58       
C           41.22       -7.57       47.81       
C           40.98       -13.43      45.95       
C           39.62       -13.36      46.2        
S           41.81       -11.93      46.36       
H           38.33       -11.78      47.09       
H           38.88       -14.18      45.98       
C           39.3        -12.05      46.77       
C           40.36       -11.2       46.85       
C           42.38       -15.91      43.24       
C           43.27       -15.78      44.23       
S           40.93       -15.18      43.8        
H           43.58       -14.81      46.19       
H           44.18       -16.37      44.33       
C           42.98       -14.88      45.27       
C           41.68       -14.43      45.16       
C           44.05       -18.96      37.64       
C           44.1        -19.33      38.98       
C           43.67       -17.67      37.38       
C           43.62       -18.47      40.02       
C           43.19       -17.15      39.71       
C           43.57       -18.88      41.35       
C           43.31       -16.77      38.39       
C           42.88       -15.44      37.93       
N           42.43       -14.56      38.91       
C           42.28       -14.93      40.22       
C           43.98       -20.25      41.78       
N           44.51       -21.02      40.72       
C           44.54       -20.69      39.4        
O           43.91       -20.58      42.9        
O           44.83       -21.59      38.58       
O           43.03       -15.07      36.79       
O           41.99       -14.04      41.03       
C           42.02       -13.14      38.48       
C           45.48       -22.09      41.19       
H           41.69       -12.45      39.24       
H           41.2        -13.27      37.72       
H           42.8227     -12.5816    37.99838    
H           45.51       -22.87      40.45       
H           45.21       -22.63      42.05       
H           46.48158    -21.66275   41.23903    
H           43.77       -17.37      36.35       
H           43.3        -18.25      43.41       
C           43.24       -17.99      42.39       
C           42.61       -16.27      40.7        
C           42.74       -16.71      42.08       
C           46.43       -20.4       34.79       
C           45.15       -20.31      34.22       
S           46.31       -20.02      36.5        
H           43.15       -19.49      34.93       
H           44.89       -20.55      33.18       
C           44.18       -19.7       35.16       
C           44.62       -19.65      36.47       
C           49.49       -21.48      32.71       
C           49.9        -21.5       34.03       
S           47.9        -20.86      32.47       
H           48.95       -21.28      36.0        
H           50.87       -21.87      34.29       
C           48.83       -21.26      34.9        
C           47.68       -20.83      34.21       
C           52.13       -21.87      29.88       
C           51.04       -22.56      29.55       
S           51.85       -21.11      31.45       
H           48.99       -23.06      30.36       
H           50.98       -23.14      28.66       
C           49.96       -22.54      30.48       
C           50.3        -21.84      31.63       
C           57.24       -21.18      25.62       
C           57.19       -21.67      26.96       
C           56.04       -20.86      25.04       
C           55.95       -21.73      27.64       
C           54.69       -21.37      26.95       
C           55.8        -22.1       29.02       
C           54.81       -20.95      25.61       
C           53.7        -20.39      24.83       
N           52.44       -20.47      25.49       
C           52.26       -20.8       26.91       
C           56.99       -22.47      29.77       
N           58.19       -22.45      29.08       
C           58.33       -22.12      27.69       
O           56.93       -22.9       30.89       
O           59.46       -22.03      27.39       
O           53.79       -19.97      23.66       
O           51.13       -20.88      27.39       
C           51.3        -19.66      24.97       
C           59.45       -22.9       29.76       
H           51.76       -18.86      24.36       
H           50.71       -19.36      25.83       
H           50.63062    -20.27899   24.3726     
H           60.03       -23.5       29.03       
H           59.28       -23.46      30.72       
H           59.98042    -22.03986   30.16856    
H           56.06       -20.48      24.0        
H           54.48       -22.32      30.75       
C           54.55       -22.14      29.66       
C           53.45       -21.31      27.66       
C           53.35       -21.75      29.02       
C           60.44       -20.83      23.29       
C           60.62       -20.03      24.37       
S           58.92       -21.64      23.37       
H           59.38       -19.4       26.11       
H           61.57       -19.49      24.65       
C           59.48       -20.08      25.22       
C           58.47       -20.87      24.81       
C           62.81       -22.73      20.83       
C           63.58       -21.82      21.51       
S           61.12       -22.51      21.18       
H           63.2        -20.23      23.04       
H           64.64       -21.78      21.42       
C           62.79       -21.0       22.4        
C           61.5        -21.34      22.42       
C           63.94       -26.1       19.4        
C           63.13       -25.6       18.51       
S           64.2        -25.06      20.74       
H           61.86       -23.84      18.3        
H           62.78       -26.15      17.62       
C           62.61       -24.34      18.91       
C           63.13       -23.91      20.06       
C           66.83       -32.07      19.12       
C           66.92       -30.9       18.36       
C           66.03       -32.0       20.25       
C           66.09       -29.75      18.61       
C           65.14       -29.74      19.67       
C           66.23       -28.51      17.9        
C           65.21       -30.94      20.5        
C           64.46       -30.91      21.76       
N           63.46       -29.88      21.92       
C           63.4        -28.74      21.1        
C           67.36       -28.29      16.97       
N           68.11       -29.45      16.71       
C           67.93       -30.75      17.27       
O           67.47       -27.19      16.33       
O           68.68       -31.6       16.96       
O           64.67       -31.85      22.58       
O           62.53       -27.89      21.36       
C           62.57       -30.01      23.02       
C           69.33       -29.23      15.96       
H           61.88       -29.21      23.04       
H           63.19       -29.85      23.89       
H           61.93801    -30.89763   22.9916     
H           70.09       -29.86      16.29       
H           69.59       -28.2       16.08       
H           69.20327    -29.49754   14.91097    
H           65.87       -32.87      20.92       
H           65.74       -26.4       17.86       
C           65.46       -27.45      18.23       
C           64.38       -28.6       19.96       
C           64.48       -27.45      19.22       
C           69.37       -34.98      19.8        
C           68.13       -35.52      19.91       
S           69.39       -33.23      19.41       
H           66.15       -34.75      19.62       
H           67.99       -36.47      20.32       
C           67.21       -34.48      19.58       
C           67.68       -33.23      19.26       
C           73.04       -35.67      20.25       
C           72.39       -36.89      20.42       
S           71.94       -34.41      19.93       
H           70.29       -37.61      20.44       
H           73.01       -37.73      20.5        
C           70.99       -36.77      20.39       
C           70.64       -35.52      20.07       
C           76.75       -34.73      19.54       
C           76.7        -35.84      20.34       
S           75.09       -34.25      19.13       
H           75.19       -36.98      21.43       
H           77.59       -36.48      20.71       
C           75.4        -36.22      20.77       
C           74.46       -35.47      20.2        
C           82.5        -32.3       17.14       
C           81.24       -32.56      16.61       
C           82.62       -32.63      18.47       
C           80.19       -33.09      17.44       
C           80.34       -33.45      18.78       
C           78.87       -33.29      16.93       
C           81.65       -33.17      19.28       
C           82.1        -33.62      20.63       
N           81.12       -34.19      21.5        
C           79.82       -34.42      21.04       
C           78.48       -32.93      15.55       
N           79.55       -32.36      14.84       
C           80.88       -32.12      15.24       
O           77.35       -33.1       15.16       
O           81.7        -31.69      14.42       
O           83.31       -33.58      20.9        
O           78.99       -34.81      21.89       
C           81.48       -34.69      22.86       
C           79.25       -31.81      13.53       
H           81.8        -35.66      22.73       
H           80.69       -34.81      23.55       
H           82.08979    -33.92956   23.34783    
H           79.74       -30.85      13.38       
H           78.15       -31.69      13.41       
H           79.59257    -32.44718   12.71468    
H           83.49       -32.31      19.01       
H           76.91       -33.76      17.26       
C           77.87       -33.71      17.75       
C           79.36       -34.08      19.57       
C           78.05       -34.19      19.08       
C           85.34       -29.8       15.98       
C           86.0        -30.82      16.52       
S           83.6        -29.96      16.16       
H           85.4        -32.7       17.46       
H           87.1        -30.79      16.64       
C           85.1        -31.8       16.97       
C           83.76       -31.59      16.69       
C           86.97       -26.26      15.18       
C           86.11       -26.62      14.18       
S           86.96       -27.51      16.37       
H           84.65       -28.24      13.66       
H           85.97       -26.01      13.32       
C           85.47       -27.88      14.39       
C           85.86       -28.53      15.52       
C           89.18       -22.98      14.72       
C           89.28       -23.45      16.01       
S           88.08       -23.99      13.81       
H           88.58       -25.13      17.32       
H           89.81       -22.92      16.76       
C           88.57       -24.59      16.31       
C           87.79       -25.09      15.26       
C           93.16       -18.28      12.27       
C           92.03       -18.24      13.17       
C           93.7        -19.49      12.01       
C           91.38       -19.42      13.58       
C           91.88       -20.64      13.27       
C           90.23       -19.43      14.35       
C           93.03       -20.64      12.39       
C           93.67       -21.92      12.01       
N           92.99       -23.1       12.32       
C           91.82       -23.14      13.09       
C           89.65       -18.13      14.79       
N           90.35       -16.93      14.37       
C           91.58       -16.91      13.62       
O           88.49       -18.03      15.2        
O           92.11       -15.82      13.38       
O           94.54       -21.87      11.18       
O           91.36       -24.18      13.4        
C           93.62       -24.39      11.97       
C           89.87       -15.63      14.91       
H           93.67       -24.49      10.88       
H           93.07       -25.26      12.23       
H           94.61096    -24.50011   12.41043    
H           90.74       -15.04      15.1        
H           89.48       -15.84      15.91       
H           89.08084    -15.12781   14.35042    
H           94.53       -19.54      11.38       
H           88.76       -20.59      15.36       
C           89.65       -20.59      14.72       
C           91.25       -21.86      13.54       
C           90.11       -21.87      14.32       
C           95.04       -15.36      10.27       
C           95.95       -15.92      11.12       
S           93.54       -16.25      10.4        
H           95.93       -17.42      12.69       
H           96.99       -15.63      11.11       
C           95.37       -16.91      11.98       
C           94.07       -17.25      11.71       
C           96.17       -12.32      8.09        
C           94.79       -12.49      8.01        
S           96.84       -13.65      9.09        
H           93.2        -13.8       8.85        
H           94.11       -11.86      7.48        
C           94.26       -13.57      8.77        
C           95.2        -14.27      9.37        
C           99.02       -9.9        7.62        
C           98.06       -9.48       6.75        
S           98.67       -11.52      8.08        
H           96.01       -10.19      6.14        
H           98.12       -8.54       6.24        
C           96.89       -10.33      6.71        
C           97.09       -11.38      7.53        
C           104.91      -7.32       8.73        
C           104.41      -7.99       7.58        
C           104.15      -7.25       9.88        
C           103.05      -8.35       7.56        
C           102.22      -8.31       8.78        
C           102.42      -8.89       6.39        
C           102.87      -7.8        9.92        
C           102.24      -7.72       11.28       
N           100.95      -8.26       11.34       
C           100.26      -8.8        10.25       
C           103.02      -8.97       5.09        
N           104.39      -8.64       5.14        
C           105.14      -8.15       6.25        
O           102.49      -9.53       4.12        
O           106.29      -7.75       6.1         
O           102.91      -7.41       12.29       
O           99.11       -9.23       10.46       
C           100.59      -8.8        12.63       
C           105.07      -8.42       3.85        
H           101.5       -9.23       13.09       
H           99.94       -9.66       12.59       
H           100.23488   -8.04005    13.32603    
H           105.75      -7.55       3.82        
H           104.32      -8.28       3.03        
H           105.7023    -9.26769    3.58596     
H           104.48      -6.7        10.74       
H           100.61      -9.73       5.68        
C           101.09      -9.33       6.54        
C           100.94      -8.74       8.88        
C           100.38      -9.26       7.75        
C           108.21      -5.08       9.2         
C           108.14      -6.14       10.08       
S           106.82      -5.15       8.14        
H           107.0       -7.86       10.47       
H           108.81      -6.34       10.92       
C           107.1       -6.96       9.81        
C           106.22      -6.64       8.88        
C           111.02      -2.49       8.39        
C           111.38      -3.2        9.5         
S           109.41      -2.87       7.95        
H           110.61      -4.87       10.77       
H           112.31      -3.11       9.97        
C           110.4       -4.17       9.92        
C           109.35      -4.19       9.07        
C           112.6       0.37        6.28        
C           113.55      -0.23       6.96        
S           111.05      -0.33       6.62        
H           113.75      -2.05       8.25        
H           114.6       0.1         7.02        
C           113.08      -1.43       7.66        
C           111.78      -1.53       7.64        
C           112.78      4.75        1.5         
C           113.68      3.79        1.87        
C           111.9       5.2         2.48        
C           113.52      3.14        3.14        
C           112.5       3.48        4.03        
C           114.26      2.03        3.5         
C           111.71      4.62        3.71        
C           110.55      5.06        4.56        
N           110.43      4.36        5.8         
C           111.15      3.17        6.09        
C           115.37      1.61        2.73        
N           115.61      2.31        1.53        
C           114.86      3.41        1.05        
O           116.09      0.71        3.03        
O           115.01      3.92        0.01        
O           109.82      5.93        4.1         
O           110.74      2.59        7.11        
C           109.66      4.82        7.03        
C           116.65      1.86        0.58        
H           110.33      4.83        7.83        
H           108.87      4.16        7.28        
H           109.31909   5.84982     6.92347     
H           116.23      1.79        -0.39       
H           116.89      0.87        0.88        
H           117.55302   2.46935     0.54329     
H           111.3       6.09        2.19        
H           114.41      0.17        4.56        
C           113.96      1.23        4.58        
C           112.2       2.74        5.19        
C           112.85      1.53        5.42        
C           112.87      7.14        -1.8        
C           111.63      6.55        -1.64       
S           113.8       6.73        -0.41       
H           110.66      5.17        -0.01       
H           110.88      6.71        -2.41       
C           111.46      5.77        -0.39       
C           112.65      5.62        0.29        
C           114.43      8.59        -5.2        
C           115.29      8.84        -4.15       
S           113.08      7.75        -4.58       
H           115.28      8.62        -1.97       
H           116.25      9.26        -4.24       
C           114.73      8.54        -2.89       
C           113.55      7.88        -2.88       
C           115.94      8.86        -8.8        
C           114.65      8.34        -8.89       
S           116.28      9.31        -7.13       
H           113.0       7.82        -7.48       
H           114.26      7.88        -9.77       
C           114.03      8.19        -7.61       
C           114.77      8.7         -6.59       
C           120.44      8.32        -13.65      
C           119.89      7.47        -12.71      
C           119.92      9.64        -13.69      
C           118.86      7.84        -11.84      
C           118.43      9.23        -11.75      
C           118.28      6.92        -11.02      
C           119.0       10.08       -12.74      
C           118.73      11.53       -12.67      
N           117.84      11.99       -11.7       
C           117.08      11.09       -10.92      
C           118.63      5.47        -10.97      
N           119.63      5.1         -11.91      
C           120.23      6.01        -12.85      
O           118.03      4.63        -10.25      
O           120.97      5.53        -13.69      
O           119.12      12.26       -13.55      
O           116.24      11.56       -10.22      
C           117.72      13.46       -11.35      
C           120.08      3.69        -11.93      
H           116.82      13.62       -10.81      
H           117.67      14.11       -12.25      
H           118.6339    13.8131     -10.87228   
H           120.63      3.47        -12.86      
H           119.16      3.06        -11.99      
H           120.89857   3.5582      -11.22242   
H           120.17      10.29       -14.5       
H           116.78      6.56        -9.56       
C           117.28      7.38        -10.15      
C           117.47      9.63        -10.84      
C           116.88      8.75        -10.02      
C           122.91      8.11        -16.77      
C           123.69      8.24        -15.65      
S           121.22      7.99        -16.42      
H           123.31      8.06        -13.44      
H           124.75      8.21        -15.57      
C           122.86      8.11        -14.46      
C           121.49      8.13        -14.69      
C           124.46      7.69        -20.35      
C           123.19      8.19        -20.52      
S           124.83      7.44        -18.66      
H           121.43      8.41        -19.15      
H           122.7       8.36        -21.51      
C           122.49      8.21        -19.24      
C           123.31      7.97        -18.15      
H           66.11       3.49        41.04       
H           125.31      7.79        -21.17      
