512

C           67.9        34.52       6.61        
C           69.1        34.36       5.99        
S           68.03       34.16       8.27        
H           71.17       33.66       6.58        
H           69.23       34.56       5.0         
C           70.12       33.91       6.89        
C           69.64       33.64       8.14        
C           62.19       36.26       3.49        
C           63.27       35.47       3.15        
C           62.36       36.95       4.71        
C           64.38       35.18       4.05        
C           64.41       35.79       5.33        
C           65.5        34.43       3.75        
C           63.36       36.64       5.59        
C           63.16       37.21       6.96        
N           64.2        36.99       7.89        
C           65.41       36.39       7.53        
C           65.64       33.86       2.41        
N           64.59       34.16       1.52        
C           63.44       34.85       1.87        
O           66.62       33.27       2.13        
O           62.64       34.98       0.91        
O           62.18       37.94       7.21        
O           66.35       36.51       8.34        
C           64.1        37.29       9.3         
C           64.99       34.08       0.1         
H           65.01       37.52       9.82        
H           63.56       38.19       9.41        
H           63.59056    36.45509    9.78114     
H           64.2        34.2        -0.65       
H           65.44       33.06       -0.03       
H           65.70188    34.86378    -0.15886    
H           61.57       37.67       4.99        
H           67.47       33.74       4.28        
C           66.56       34.22       4.64        
C           65.51       35.68       6.23        
C           66.61       34.85       5.89        
C           59.4        37.94       1.25        
C           59.13       36.59       1.46        
S           60.92       38.35       2.04        
H           60.18       34.88       2.45        
H           58.24       36.11       1.09        
C           60.09       35.92       2.26        
C           61.1        36.71       2.59        
C           56.84       39.82       -1.1        
C           57.1        40.63       -0.04       
S           57.73       38.36       -0.94       
H           58.3        40.62       1.87        
H           56.71       41.67       -0.15       
C           57.98       40.08       0.93        
C           58.52       38.91       0.54        
C           54.27       39.92       -4.15       
C           54.77       41.17       -3.95       
S           55.11       38.81       -3.02       
H           56.44       42.01       -2.86       
H           54.38       42.07       -4.44       
C           55.89       41.12       -3.03       
C           56.07       40.02       -2.31       
C           49.11       38.5        -7.96       
C           50.48       38.44       -8.16       
C           48.64       39.11       -6.8        
C           51.36       38.91       -7.16       
C           50.87       39.63       -6.02       
C           52.76       38.63       -7.21       
C           49.48       39.82       -5.9        
C           48.86       40.31       -4.62       
N           49.78       40.65       -3.6        
C           51.13       40.55       -3.77       
C           53.41       37.97       -8.32       
N           52.58       37.7        -9.43       
C           51.14       37.93       -9.4        
O           54.6        37.65       -8.37       
O           50.51       37.72       -10.41      
O           47.61       40.34       -4.49       
O           51.79       41.24       -3.0        
C           49.25       40.89       -2.19       
C           53.21       37.29       -10.69      
H           48.2        41.27       -2.16       
H           49.85       41.65       -1.62       
H           49.24306    39.91789    -1.697      
H           52.67       36.38       -11.1       
H           54.25       36.91       -10.52      
H           53.21       38.01681    -11.50231   
H           47.57       39.02       -6.62       
H           54.58       38.98       -6.28       
C           53.55       39.1        -6.24       
C           51.77       39.94       -4.99       
C           53.14       39.65       -5.09       
C           46.07       36.54       -9.68       
C           46.44       37.51       -10.52      
S           47.11       36.52       -8.29       
H           47.77       39.28       -10.46      
H           45.98       37.49       -11.49      
C           47.45       38.39       -9.98       
C           47.96       37.97       -8.8        
C           43.9        33.35       -9.87       
C           43.16       34.39       -10.4       
S           45.51       33.92       -9.59       
H           43.27       36.56       -10.75      
H           42.18       34.21       -10.73      
C           43.8        35.65       -10.41      
C           45.06       35.58       -9.92       
C           43.64       29.58       -8.82       
C           42.44       30.18       -8.77       
S           44.82       30.82       -9.27       
H           41.47       32.2        -9.02       
H           41.51       29.64       -8.56       
C           42.41       31.6        -9.04       
C           43.54       32.03       -9.54       
C           44.13       22.99       -8.58       
C           44.57       24.03       -7.71       
C           43.21       23.29       -9.59       
C           44.31       25.37       -8.03       
C           43.4        25.72       -9.06       
C           44.87       26.44       -7.24       
C           42.97       24.63       -9.86       
C           41.99       24.87       -10.95      
N           41.66       26.16       -11.16      
C           42.18       27.26       -10.53      
C           45.61       26.11       -6.0        
N           45.93       24.76       -5.75       
C           45.48       23.69       -6.55       
O           45.94       26.99       -5.26       
O           45.67       22.51       -6.2        
O           41.39       23.9        -11.52      
O           41.86       28.34       -10.97      
C           40.57       26.44       -12.04      
C           46.67       24.46       -4.48       
H           40.18       27.48       -11.99      
H           39.78       25.95       -11.62      
H           40.76441    26.35668    -13.10928   
H           46.24       23.65       -3.91       
H           46.56       25.36       -3.89       
H           47.73238    24.26251    -4.62301    
H           43.03       22.57       -10.31      
H           45.1        28.56       -6.99       
C           44.62       27.77       -7.59       
C           43.13       27.04       -9.34       
C           43.76       28.08       -8.68       
C           45.64       19.57       -9.88       
C           44.43       19.35       -9.27       
S           46.06       21.25       -9.58       
H           42.7        20.53       -8.41       
H           43.88       18.48       -9.48       
C           43.76       20.49       -8.7        
C           44.59       21.58       -8.83       
C           47.83       18.15       -12.81      
C           47.22       17.08       -12.23      
S           47.37       19.64       -12.0       
H           45.83       16.7        -10.51      
H           47.32       16.1        -12.68      
C           46.38       17.42       -11.08      
C           46.4        18.75       -10.8       
C           50.51       17.69       -15.47      
C           50.05       18.94       -15.6       
S           49.47       16.79       -14.45      
H           48.55       20.24       -14.57      
H           50.52       19.63       -16.27      
C           48.97       19.21       -14.7       
C           48.59       18.18       -13.97      
C           55.54       15.28       -19.12      
C           55.43       15.64       -17.76      
C           54.36       15.37       -19.9       
C           54.17       16.15       -17.32      
C           53.04       16.39       -18.12      
C           54.02       16.65       -15.97      
C           53.18       15.94       -19.46      
C           52.13       16.03       -20.46      
N           50.98       16.75       -20.0       
C           50.76       17.14       -18.64      
C           55.08       16.51       -14.94      
N           56.3        16.01       -15.45      
C           56.45       15.45       -16.73      
O           55.02       16.91       -13.81      
O           57.51       14.85       -16.91      
O           52.27       15.55       -21.6       
O           49.65       17.63       -18.29      
C           50.2        17.6        -21.01      
C           57.56       16.17       -14.65      
H           50.87       18.17       -21.67      
H           49.53       18.35       -20.54      
H           49.7091     16.9478     -21.73233   
H           58.16       15.2        -14.62      
H           57.31       16.4        -13.59      
H           58.15024    17.00202    -15.03401   
H           54.36       15.24       -20.98      
H           52.73       17.43       -14.49      
C           52.82       17.2        -15.54      
C           51.79       16.91       -17.63      
C           51.68       17.26       -16.28      
C           58.21       13.87       -21.62      
C           58.88       14.59       -20.71      
S           56.53       13.88       -21.38      
H           58.21       15.9        -19.02      
H           59.97       14.63       -20.58      
C           57.97       15.19       -19.84      
C           56.68       14.92       -20.03      
C           59.83       11.3        -24.19      
C           59.11       12.24       -24.94      
S           59.85       11.73       -22.53      
H           57.65       13.87       -24.49      
H           59.07       12.19       -26.04      
C           58.44       13.18       -24.12      
C           58.75       13.03       -22.75      
C           61.9        8.56        -25.91      
C           61.81       8.27        -24.61      
S           60.84       9.92        -26.24      
H           60.97       9.07        -22.83      
H           62.21       7.36        -24.09      
C           61.15       9.23        -23.78      
C           60.57       10.15       -24.54      
C           65.31       5.17        -30.46      
C           64.14       4.88        -29.68      
C           65.83       6.43        -30.31      
C           63.77       5.84        -28.69      
C           64.29       7.14        -28.57      
C           62.78       5.51        -27.74      
C           65.38       7.33        -29.38      
C           65.98       8.69        -29.45      
N           65.55       9.68        -28.49      
C           64.5        9.45        -27.59      
C           62.16       4.19        -27.6       
N           62.53       3.3         -28.57      
C           63.41       3.55        -29.69      
O           61.14       3.93        -26.92      
O           63.68       2.59        -30.39      
O           66.74       8.94        -30.43      
O           64.2        10.33       -26.83      
C           65.96       11.04       -28.68      
C           62.01       1.92        -28.45      
H           65.65       11.75       -27.92      
H           65.4        11.32       -29.59      
H           67.04575    11.13621    -28.68      
H           61.9        1.57        -29.49      
H           61.01       2.0         -28.03      
H           62.67772    1.27337     -27.88068   
H           66.63       6.75        -30.93      
H           61.58       6.12        -26.19      
C           62.36       6.44        -26.85      
C           63.82       8.13        -27.62      
C           62.74       7.76        -26.79      
C           67.51       3.62        -33.18      
C           66.27       3.11        -33.53      
S           67.6        4.73        -31.88      
H           64.32       3.49        -32.56      
H           66.01       2.48        -34.36      
C           65.33       3.69        -32.56      
C           65.91       4.61        -31.73      
C           71.19       3.1         -34.54      
C           70.3        3.01        -35.57      
S           70.25       3.51        -33.17      
H           68.14       2.91        -35.98      
H           70.51       2.85        -36.62      
C           68.89       3.1         -35.27      
C           68.72       3.48        -33.97      
C           75.15       3.62        -34.03      
C           74.94       2.97        -35.18      
S           73.56       3.99        -33.41      
H           73.34       1.96        -36.32      
H           75.74       2.68        -35.84      
C           73.53       2.6         -35.47      
C           72.65       3.08        -34.58      
C           80.57       6.29        -31.38      
C           79.86       6.54        -32.56      
C           80.11       5.19        -30.65      
C           78.72       5.73        -32.86      
C           78.21       4.71        -32.05      
C           77.97       6.09        -34.0       
C           78.96       4.45        -30.91      
C           78.63       3.35        -29.98      
N           77.49       2.6         -30.33      
C           76.77       2.78        -31.51      
C           78.21       7.29        -34.82      
N           79.32       8.06        -34.47      
C           80.23       7.71        -33.44      
O           77.39       7.5         -35.73      
O           81.22       8.31        -33.29      
O           79.31       3.17        -28.97      
O           75.83       2.04        -31.71      
C           76.98       1.59        -29.4       
C           79.67       9.08        -35.41      
H           77.89       1.08        -29.24      
H           76.16       1.04        -29.84      
H           76.61473    1.99108     -28.45459   
H           80.38       9.84        -34.99      
H           78.77       9.7         -35.5       
H           79.95609    8.75814     -36.41133   
H           80.68       4.93        -29.84      
H           76.43       5.48        -35.31      
C           76.9        5.28        -34.33      
C           77.11       3.89        -32.41      
C           76.48       4.2         -33.58      
C           84.27       7.11        -30.41      
C           83.53       7.5         -29.4       
S           83.31       6.6         -31.78      
H           81.39       7.35        -28.82      
H           83.87       7.85        -28.45      
C           82.12       7.26        -29.61      
C           81.84       6.79        -30.9       
C           88.09       7.54        -30.24      
C           87.88       6.45        -31.03      
S           86.61       8.33        -29.86      
H           86.15       5.31        -31.77      
H           88.67       5.77        -31.4       
C           86.48       6.15        -31.23      
C           85.72       7.06        -30.54      
C           91.64       8.65        -29.18      
C           90.72       9.57        -28.85      
S           90.88       7.31        -29.89      
H           88.51       10.08       -29.18      
H           91.09       10.51       -28.48      
C           89.36       9.39        -29.28      
C           89.33       8.12        -29.83      
C           97.79       8.24        -27.13      
C           96.59       8.42        -26.47      
C           97.81       8.48        -28.54      
C           95.41       8.67        -27.19      
C           95.39       8.6         -28.62      
C           94.16       8.85        -26.51      
C           96.69       8.48        -29.23      
C           96.78       8.48        -30.75      
N           95.6        8.36        -31.5       
C           94.36       8.39        -30.92      
C           94.0        8.86        -25.03      
N           95.23       8.62        -24.3       
C           96.45       8.31        -24.96      
O           92.91       9.19        -24.45      
O           97.39       8.16        -24.22      
O           97.89       8.46        -31.26      
O           93.33       8.27        -31.56      
C           95.64       7.93        -32.98      
C           95.25       8.39        -22.81      
H           94.76       8.28        -33.47      
H           95.54       6.92        -33.11      
H           96.4725     8.24748     -33.6079    
H           95.91       7.55        -22.55      
H           94.21       8.01        -22.5       
H           95.49043    9.26928     -22.21237   
H           98.75       8.54        -29.05      
H           92.1        8.68        -26.72      
C           92.99       8.83        -27.28      
C           94.22       8.54        -29.4       
C           93.01       8.64        -28.69      
C           101.22      8.29        -25.34      
C           101.16      7.1         -26.0       
S           99.82       9.27        -25.63      
H           99.64       6.06        -27.34      
H           102.01      6.44        -26.05      
C           99.96       6.88        -26.71      
C           99.13       7.97        -26.56      
C           104.23      10.7        -24.36      
C           104.47      9.55        -23.81      
S           102.72      10.7        -25.23      
H           103.55      7.52        -23.8       
H           105.22      9.27        -23.14      
C           103.47      8.56        -24.12      
C           102.39      9.06        -24.77      
C           106.31      13.94       -25.19      
C           106.47      13.71       -23.84      
S           105.21      12.74       -25.8       
H           105.72      12.37       -22.23      
H           107.2       14.25       -23.19      
C           105.73      12.61       -23.29      
C           105.03      11.94       -24.3       
C           110.17      18.49       -27.96      
C           110.43      17.39       -27.17      
C           108.9       18.63       -28.49      
C           109.38      16.5        -26.79      
C           108.02      16.78       -27.21      
C           109.61      15.44       -25.89      
C           107.87      17.85       -28.1       
C           106.53      18.19       -28.59      
N           105.43      17.37       -28.25      
C           105.6       16.29       -27.37      
C           110.92      14.92       -25.53      
N           111.93      15.77       -25.9       
C           111.78      16.96       -26.68      
O           111.14      13.85       -24.96      
O           112.74      17.7        -26.78      
O           106.34      19.15       -29.35      
O           104.69      15.52       -27.33      
C           104.39      17.19       -29.24      
C           113.33      15.43       -25.37      
H           103.84      16.25       -29.07      
H           104.91      17.11       -30.18      
H           103.70771   18.03576    -29.32529   
H           114.03      15.79       -26.09      
H           113.42      14.31       -25.29      
H           113.64901   15.93905    -24.46049   
H           108.67      19.38       -29.23      
H           108.84      13.72       -24.99      
C           108.55      14.6        -25.54      
C           106.96      16.01       -26.72      
C           107.22      14.93       -25.81      
C           112.23      21.34       -29.86      
C           112.91      20.21       -29.94      
S           110.78      21.09       -28.9       
H           112.68      18.15       -29.23      
H           113.87      20.19       -30.47      
C           112.3       19.14       -29.26      
C           111.11      19.42       -28.63      
C           112.64      25.15       -30.34      
C           113.73      24.59       -30.94      
S           111.69      23.96       -29.55      
H           114.37      22.55       -31.37      
H           114.43      25.09       -31.5       
C           113.65      23.19       -30.91      
C           112.56      22.71       -30.18      
C           112.72      29.07       -29.7       
C           111.65      28.51       -29.01      
S           113.55      27.8        -30.58      
H           110.69      26.53       -28.75      
H           111.08      29.12       -28.38      
C           111.47      27.12       -29.25      
C           112.41      26.6        -30.04      
C           114.83      35.44       -29.45      
C           114.41      34.57       -28.45      
C           114.78      34.94       -30.76      
C           113.96      33.23       -28.77      
C           114.1       32.71       -30.09      
C           113.39      32.29       -27.85      
C           114.51      33.65       -31.08      
C           114.69      33.31       -32.53      
N           114.29      32.0        -32.93      
C           113.77      31.06       -32.01      
C           113.55      32.59       -26.35      
N           113.93      33.9        -26.03      
C           114.32      34.95       -26.99      
O           113.06      31.83       -25.51      
O           114.82      35.91       -26.46      
O           114.87      34.15       -33.36      
O           113.37      29.96       -32.43      
C           114.08      31.71       -34.32      
C           113.77      34.46       -24.65      
H           113.46      32.45       -34.71      
H           113.56      30.84       -34.53      
H           114.96697   31.67365    -34.95251   
H           114.66      35.0        -24.36      
H           113.84      33.62       -23.96      
H           112.79087   34.9013     -24.46383   
H           115.06      35.6        -31.58      
H           112.95      30.32       -27.55      
C           113.12      30.99       -28.27      
C           113.72      31.4        -30.56      
C           113.19      30.5        -29.6       
C           116.09      39.1        -29.79      
C           115.17      39.17       -28.83      
S           116.18      37.6        -30.67      
H           113.81      37.73       -27.97      
H           115.02      39.98       -28.06      
C           114.59      37.92       -28.69      
C           115.1       36.91       -29.49      
C           118.61      41.33       -31.71      
C           117.73      42.2        -31.07      
S           118.19      39.77       -31.3       
H           115.97      42.11       -29.91      
H           117.71      43.26       -31.33      
C           116.72      41.51       -30.39      
C           116.85      40.18       -30.31      
C           121.17      41.61       -34.55      
C           121.25      42.72       -33.77      
S           120.0       40.56       -33.81      
H           120.23      43.77       -32.08      
H           121.88      43.55       -33.91      
C           120.29      42.82       -32.72      
C           119.63      41.71       -32.62      
C           124.78      40.11       -39.68      
C           124.87      39.84       -38.4       
C           123.64      40.77       -40.2       
C           123.86      40.31       -37.51      
C           122.69      41.03       -37.94      
C           124.04      40.24       -36.13      
C           122.6       41.16       -39.33      
C           121.46      41.82       -39.94      
N           120.53      42.37       -39.05      
C           120.55      42.18       -37.65      
C           125.27      39.6        -35.57      
N           126.15      39.04       -36.47      
C           126.01      39.03       -37.83      
O           125.64      39.86       -34.46      
O           126.98      38.68       -38.52      
O           121.37      41.91       -41.22      
O           119.7       42.67       -36.9       
C           119.38      43.1        -39.61      
C           127.27      38.27       -35.9       
H           118.53      43.16       -38.87      
H           118.95      42.54       -40.4       
H           119.67089   44.08618    -39.97184   
H           127.19      37.28       -36.3       
H           127.14      38.32       -34.84      
H           128.2403    38.69785    -36.15212   
H           123.5       40.89       -41.23      
H           123.31      40.6        -34.21      
C           123.14      40.77       -35.26      
C           121.75      41.56       -37.04      
C           121.97      41.4        -35.71      
C           127.53      40.11       -42.53      
C           126.43      39.44       -43.0       
S           127.29      40.45       -40.87      
H           124.38      38.99       -42.19      
H           126.36      39.13       -44.05      
C           125.44      39.35       -41.98      
C           125.69      39.78       -40.73      
C           130.42      40.75       -45.07      
C           131.0       40.69       -43.82      
S           128.73      40.35       -44.95      
H           130.2       40.56       -41.73      
H           132.1       40.84       -43.6       
C           129.98      40.69       -42.78      
C           128.73      40.47       -43.25      
H           69.93       32.68       8.61        
H           130.83      41.43       -45.87      
