512

C           67.52       7.33        6.6         
C           68.42       8.42        6.57        
S           67.68       6.47        8.12        
H           69.51       9.53        8.24        
H           68.45       9.13        5.75        
C           68.97       8.66        7.9         
C           68.57       7.77        8.87        
C           65.58       3.95        1.26        
C           66.8        4.55        1.62        
C           64.58       4.03        2.21        
C           66.87       5.28        2.89        
C           65.82       5.31        3.82        
C           68.03       6.0         3.26        
C           64.64       4.69        3.41        
C           63.46       4.57        4.3         
N           63.6        5.1         5.53        
C           64.75       5.83        5.96        
C           69.29       6.06        2.41        
N           69.2        5.47        1.15        
C           68.05       4.69        0.72        
O           70.22       6.82        2.77        
O           68.09       4.13        -0.41       
O           62.42       4.11        3.82        
O           64.63       6.58        6.97        
C           62.3        5.19        6.31        
C           70.44       5.21        0.41        
H           62.11       6.16        6.62        
H           61.44       5.06        5.62        
H           62.27186    4.43014     7.09097     
H           70.43       4.21        0.04        
H           71.27       5.38        1.05        
H           70.49614    5.93276     -0.40398    
H           63.69       3.58        1.97        
H           69.06       7.09        4.68        
C           68.08       6.67        4.47        
C           65.87       5.97        5.04        
C           67.0        6.7         5.38        
C           64.51       1.79        -1.88       
C           64.99       2.93        -2.34       
S           64.6        1.72        -0.13       
H           65.78       4.74        -1.54       
H           65.03       3.26        -3.39       
C           65.31       3.78        -1.31       
C           65.17       3.33        -0.01       
C           62.56       -1.36       -3.15       
C           63.36       -0.97       -4.13       
S           62.87       -0.45       -1.69       
H           64.86       0.71        -4.52       
H           63.47       -1.55       -5.02       
C           64.16       0.22        -3.88       
C           63.99       0.62        -2.55       
C           60.06       -4.32       -3.86       
C           60.42       -4.37       -2.53       
S           60.77       -2.87       -4.53       
H           61.85       -3.34       -1.1        
H           60.1        -5.12       -1.84       
C           61.42       -3.44       -2.13       
C           61.66       -2.48       -3.12       
C           54.86       -6.16       -7.37       
C           55.14       -6.17       -5.96       
C           55.79       -5.61       -8.17       
C           56.46       -5.81       -5.54       
C           57.43       -5.28       -6.45       
C           56.77       -5.79       -4.17       
C           57.01       -5.19       -7.78       
C           57.78       -4.47       -8.82       
N           59.09       -4.15       -8.39       
C           59.57       -4.46       -7.1        
C           55.83       -6.13       -3.12       
N           54.54       -6.49       -3.55       
C           54.15       -6.58       -4.93       
O           56.19       -6.24       -1.96       
O           53.01       -6.93       -5.14       
O           57.29       -4.23       -9.9        
O           60.7        -4.21       -6.94       
C           60.07       -4.11       -9.52       
C           53.78       -7.44       -2.66       
H           59.85       -4.71       -10.36      
H           61.08       -4.39       -9.18       
H           60.18104    -3.0759     -9.84619    
H           52.74       -7.2        -2.77       
H           53.99       -7.22       -1.59       
H           54.08591    -8.48286    -2.74343    
H           55.57       -5.53       -9.26       
H           58.17       -5.31       -2.67       
C           58.02       -5.39       -3.73       
C           58.69       -4.97       -5.99       
C           59.02       -5.11       -4.59       
C           52.06       -8.19       -9.13       
C           52.24       -7.03       -9.81       
S           53.02       -8.22       -7.72       
H           53.4        -5.22       -9.56       
H           51.69       -6.82       -10.75      
C           53.23       -6.24       -9.21       
C           53.73       -6.74       -8.09       
C           50.06       -11.59      -8.93       
C           49.77       -11.09      -10.15      
S           51.18       -10.57      -8.1        
H           49.98       -9.0        -11.1       
H           49.05       -11.54      -10.8       
C           50.29       -9.72       -10.3       
C           51.21       -9.35       -9.32       
C           48.33       -14.3       -6.65       
C           48.89       -14.89      -7.72       
S           48.72       -12.62      -6.72       
H           49.91       -14.3       -9.58       
H           48.78       -15.98      -7.93       
C           49.48       -14.02      -8.65       
C           49.51       -12.68      -8.27       
C           46.38       -18.53      -1.99       
C           47.43       -17.56      -2.1        
C           45.45       -18.43      -3.08       
C           47.55       -16.73      -3.23       
C           46.58       -16.68      -4.29       
C           48.75       -16.0       -3.45       
C           45.49       -17.48      -4.11       
C           44.41       -17.6       -5.18       
N           44.49       -16.79      -6.29       
C           45.66       -16.01      -6.55       
C           49.91       -16.08      -2.56       
N           49.7        -16.8       -1.4        
C           48.51       -17.47      -1.07       
O           51.01       -15.52      -2.8        
O           48.45       -18.13      -0.03       
O           43.5        -18.37      -4.84       
O           45.7        -15.31      -7.54       
C           43.36       -16.55      -7.22       
C           50.61       -16.56      -0.28       
H           43.62       -16.12      -8.22       
H           42.72       -15.83      -6.75       
H           42.77226    -17.44931   -7.40411    
H           49.95       -16.61      0.6         
H           51.0        -15.55      -0.29       
H           51.35056    -17.3355    -0.08438    
H           44.63       -19.13      -3.05       
H           49.88       -14.89      -4.89       
C           48.88       -15.35      -4.67       
C           46.73       -15.92      -5.44       
C           47.88       -15.14      -5.54       
C           46.29       -21.57      0.47        
C           45.13       -20.86      0.57        
S           47.23       -20.99      -0.83       
H           44.2        -19.02      -0.33       
H           44.27       -21.13      1.17        
C           45.02       -19.76      -0.28       
C           46.1        -19.69      -1.05       
C           47.91       -24.78      1.78        
C           47.48       -24.05      2.9         
S           47.3        -24.06      0.35        
H           46.71       -22.0       3.31        
H           47.68       -24.43      3.9         
C           46.96       -22.76      2.62        
C           46.88       -22.64      1.22        
C           50.07       -27.65      0.48        
C           49.74       -28.08      1.71        
S           49.58       -26.05      0.2         
H           48.56       -27.19      3.48        
H           49.93       -29.09      2.14        
C           48.94       -27.09      2.47        
C           48.59       -26.05      1.67        
C           54.11       -31.66      -2.82       
C           54.18       -31.01      -1.63       
C           52.98       -31.49      -3.64       
C           53.15       -30.15      -1.29       
C           51.91       -30.01      -2.01       
C           53.14       -29.51      0.0         
C           51.83       -30.71      -3.25       
C           50.62       -30.79      -4.02       
N           49.55       -29.89      -3.52       
C           49.58       -29.19      -2.34       
C           54.31       -29.64      0.92        
N           55.36       -30.4       0.47        
C           55.36       -31.12      -0.69       
O           54.34       -28.99      1.96        
O           56.35       -31.8       -0.97       
O           50.6        -31.38      -5.09       
O           48.66       -28.51      -1.98       
C           48.36       -29.71      -4.42       
C           56.57       -30.78      1.31        
H           47.7        -28.95      -4.08       
H           47.84       -30.62      -4.6        
H           48.66558    -29.27651   -5.37226    
H           56.82       -31.86      1.24        
H           56.34       -30.71      2.34        
H           57.40835    -30.09608   1.17763     
H           52.9        -31.93      -4.64       
H           52.07       -28.38      1.47        
C           52.09       -28.75      0.44        
C           50.81       -29.23      -1.5        
C           50.91       -28.56      -0.26       
C           57.27       -32.95      -4.9        
C           56.24       -33.86      -4.97       
S           56.75       -31.63      -3.92       
H           54.17       -34.09      -4.28       
H           56.28       -34.78      -5.55       
C           55.09       -33.49      -4.25       
C           55.18       -32.35      -3.5        
C           60.36       -33.43      -7.11       
C           60.51       -32.2       -6.61       
S           58.86       -34.16      -6.58       
H           59.31       -30.82      -5.4        
H           61.38       -31.58      -6.86       
C           59.37       -31.83      -5.82       
C           58.45       -32.79      -5.67       
C           62.8        -34.85      -9.63       
C           62.08       -35.93      -9.16       
S           62.31       -33.34      -8.92       
H           60.47       -36.27      -7.84       
H           62.16       -36.98      -9.5        
C           61.18       -35.56      -8.16       
C           61.24       -34.22      -7.92       
C           67.12       -34.65      -14.77      
C           65.82       -35.15      -14.62      
C           67.67       -34.1       -13.65      
C           65.16       -35.14      -13.35      
C           65.75       -34.64      -12.18      
C           63.84       -35.69      -13.13      
C           67.05       -34.08      -12.44      
C           67.69       -33.18      -11.4       
N           67.02       -33.09      -10.14      
C           65.83       -33.78      -9.85       
C           62.98       -36.32      -14.16      
N           63.67       -36.27      -15.34      
C           64.92       -35.69      -15.67      
O           61.81       -36.71      -14.05      
O           65.34       -35.84      -16.82      
O           68.79       -32.65      -11.59      
O           65.32       -33.69      -8.71       
C           67.75       -32.5       -8.99       
C           63.18       -37.26      -16.33      
H           68.74       -32.94      -8.89       
H           67.15       -32.68      -8.06       
H           67.78684    -31.41702   -9.10788    
H           63.36       -36.96      -17.38      
H           62.09       -37.33      -16.3       
H           63.54963    -38.27648   -16.19494   
H           68.55       -33.51      -13.82      
H           62.23       -36.05      -11.81      
C           63.2        -35.64      -11.93      
C           65.06       -34.55      -10.94      
C           63.73       -34.99      -10.83      
C           68.79       -33.29      -18.05      
C           69.54       -34.3       -17.55      
S           67.42       -33.03      -17.01      
H           69.39       -35.77      -15.86      
H           70.55       -34.5       -17.93      
C           68.91       -34.96      -16.42      
C           67.76       -34.36      -16.02      
C           69.97       -31.5       -21.2       
C           68.92       -30.77      -20.74      
S           70.43       -32.71      -20.12      
H           67.7        -30.75      -18.98      
H           68.46       -29.88      -21.24      
C           68.46       -31.24      -19.5       
C           69.03       -32.42      -19.15      
C           73.22       -31.75      -23.35      
C           72.69       -30.46      -23.5       
S           72.01       -32.69      -22.52      
H           71.1        -29.23      -22.67      
H           73.26       -29.65      -23.91      
C           71.46       -30.19      -22.83      
C           70.98       -31.3       -22.24      
C           79.11       -33.59      -25.51      
C           78.04       -33.02      -26.17      
C           78.98       -33.93      -24.18      
C           76.87       -32.85      -25.39      
C           76.73       -33.1       -24.02      
C           75.68       -32.35      -26.12      
C           77.85       -33.64      -23.39      
C           78.01       -33.89      -21.98      
N           76.85       -33.62      -21.2       
C           75.65       -33.11      -21.8       
C           75.68       -31.83      -27.5       
N           76.88       -31.94      -28.25      
C           78.05       -32.52      -27.63      
O           74.69       -31.29      -28.01      
O           79.06       -32.48      -28.29      
O           79.0        -34.39      -21.47      
O           74.8        -32.81      -21.04      
C           77.04       -33.39      -19.74      
C           76.95       -31.73      -29.72      
H           76.1        -33.22      -19.27      
H           77.63       -32.47      -19.64      
H           77.48608    -34.24034   -19.22422   
H           77.9        -31.33      -30.03      
H           76.31       -30.97      -30.1       
H           76.77068    -32.64811   -30.27948   
H           79.85       -34.35      -23.72      
H           73.71       -31.61      -25.83      
C           74.6        -32.06      -25.28      
C           75.55       -32.82      -23.3       
C           74.45       -32.26      -23.92      
C           82.41       -34.94      -26.8       
C           81.47       -35.58      -27.51      
S           81.83       -33.95      -25.59      
H           79.28       -35.44      -27.61      
H           81.77       -36.31      -28.32      
C           80.18       -35.17      -27.13      
C           80.22       -34.27      -26.11      
C           86.27       -34.66      -27.03      
C           85.98       -35.98      -27.34      
S           84.85       -33.77      -26.86      
H           84.19       -37.23      -26.95      
H           86.71       -36.84      -27.44      
C           84.59       -36.25      -27.17      
C           83.85       -35.12      -26.89      
C           89.36       -32.25      -26.74      
C           89.72       -33.54      -26.42      
S           87.71       -32.36      -27.36      
H           88.91       -35.62      -26.28      
H           90.73       -33.66      -26.16      
C           88.73       -34.56      -26.42      
C           87.56       -34.02      -26.88      
C           93.62       -27.27      -27.1       
C           92.47       -27.43      -26.3       
C           94.11       -28.36      -27.8       
C           91.8        -28.69      -26.44      
C           92.26       -29.77      -27.31      
C           90.53       -28.94      -25.82      
C           93.49       -29.59      -27.94      
C           94.14       -30.53      -28.86      
N           93.38       -31.75      -29.05      
C           92.12       -31.99      -28.46      
C           90.03       -27.96      -24.84      
N           90.74       -26.82      -24.57      
C           91.96       -26.46      -25.28      
O           89.23       -28.32      -23.93      
O           92.54       -25.51      -24.9       
O           95.25       -30.39      -29.35      
O           91.67       -33.1       -28.58      
C           93.79       -32.5       -30.27      
C           90.17       -25.8       -23.77      
H           94.02       -31.85      -31.1       
H           93.0        -33.23      -30.53      
H           94.62737    -33.15128   -30.01951   
H           90.86       -25.07      -23.49      
H           89.99       -26.19      -22.78      
H           89.2575     -25.40791   -24.21912   
H           94.96       -28.27      -28.45      
H           88.97       -30.19      -25.31      
C           89.89       -30.11      -25.91      
C           91.51       -30.92      -27.53      
C           90.29       -31.14      -26.81      
C           95.74       -24.17      -28.41      
C           94.42       -23.84      -28.34      
S           95.89       -25.77      -27.77      
H           92.52       -24.71      -27.78      
H           94.03       -22.83      -28.7       
C           93.56       -24.87      -27.86      
C           94.21       -26.03      -27.61      
C           98.21       -21.97      -30.5       
C           98.94       -22.47      -29.43      
S           96.58       -22.49      -30.45      
H           98.53       -23.79      -27.66      
H           99.98       -22.3       -29.35      
C           98.16       -23.3       -28.6       
C           96.85       -23.4       -28.99      
C           100.28      -19.93      -33.14      
C           98.99       -19.96      -33.53      
S           100.43      -20.9       -31.69      
H           97.0        -20.72      -32.88      
H           98.72       -19.42      -34.42      
C           98.1        -20.71      -32.7       
C           98.73       -21.21      -31.63      
C           105.33      -17.18      -36.4       
C           104.86      -17.04      -35.07      
C           104.58      -17.92      -37.28      
C           103.64      -17.72      -34.68      
C           102.9       -18.53      -35.56      
C           103.17      -17.64      -33.3       
C           103.45      -18.66      -36.86      
C           102.87      -19.56      -37.94      
N           101.73      -20.24      -37.51      
C           101.32      -20.27      -36.13      
C           103.96      -16.9       -32.26      
N           105.17      -16.39      -32.69      
C           105.69      -16.43      -33.97      
O           103.55      -16.86      -31.13      
O           106.87      -16.02      -34.05      
O           103.42      -19.78      -39.04      
O           100.4       -20.94      -35.8       
C           101.18      -21.26      -38.36      
C           105.97      -15.69      -31.67      
H           100.66      -21.98      -37.8       
H           101.94      -21.99      -38.76      
H           100.47955   -20.8526    -39.08904   
H           107.01      -15.91      -31.79      
H           105.7       -16.13      -30.72      
H           105.66728   -14.64489   -31.60513   
H           104.99      -18.04      -38.29      
H           101.71      -18.29      -31.87      
C           102.06      -18.36      -32.9       
C           101.82      -19.32      -35.13      
C           101.42      -19.26      -33.83      
C           108.34      -14.78      -37.67      
C           108.54      -16.0       -38.17      
S           106.86      -14.85      -36.76      
H           107.47      -17.91      -38.33      
H           109.34      -16.19      -38.89      
C           107.5       -16.92      -37.81      
C           106.54      -16.54      -36.97      
C           110.55      -11.78      -38.87      
C           109.98      -11.4       -37.67      
S           109.99      -13.38      -39.35      
H           108.64      -12.44      -36.11      
H           110.24      -10.43      -37.19      
C           109.1       -12.42      -37.09      
C           109.02      -13.53      -37.91      
C           111.72      -9.51       -41.76      
C           112.56      -9.27       -40.66      
S           110.68      -10.84      -41.38      
H           112.82      -10.08      -38.53      
H           113.29      -8.42       -40.67      
C           112.32      -10.09      -39.5       
C           111.36      -11.03      -39.75      
C           112.01      -6.23       -47.42      
C           112.9       -6.9        -46.7       
C           110.64      -6.3        -47.03      
C           112.52      -7.33       -45.4       
C           111.19      -7.44       -44.96      
C           113.51      -7.98       -44.56      
C           110.22      -6.83       -45.83      
C           108.72      -6.64       -45.48      
N           108.39      -7.21       -44.23      
C           109.3       -8.0        -43.47      
C           114.89      -8.12       -44.95      
N           115.28      -7.63       -46.23      
C           114.33      -7.05       -47.11      
O           115.67      -8.66       -44.17      
O           114.7       -6.99       -48.26      
O           107.86      -6.23       -46.26      
O           108.84      -8.38       -42.39      
C           106.95      -7.43       -43.91      
C           116.68      -7.72       -46.62      
H           106.8       -8.13       -43.02      
H           106.4       -8.0        -44.71      
H           106.44001   -6.46669    -43.90292   
H           116.9       -7.95       -47.62      
H           117.0       -8.62       -46.06      
H           117.34712   -6.90223    -46.34741   
H           109.87      -5.82       -47.63      
H           113.83      -9.11       -42.82      
C           113.05      -8.58       -43.43      
C           110.78      -8.04       -43.71      
C           111.75      -8.68       -42.94      
C           112.72      -3.5        -50.25      
C           111.72      -4.31       -50.7       
S           113.35      -4.1        -48.68      
H           110.67      -6.14       -50.02      
H           111.17      -4.17       -51.62      
C           111.45      -5.39       -49.79      
C           112.26      -5.45       -48.62      
C           114.57      -0.4        -51.49      
C           114.04      -1.05       -52.57      
S           114.23      -1.25       -50.07      
H           112.7       -2.75       -53.01      
H           114.04      -0.57       -53.54      
C           113.33      -2.26       -52.27      
C           113.29      -2.44       -50.94      
C           115.45      3.26        -50.56      
C           115.91      3.08        -51.82      
S           114.6       1.83        -50.07      
H           115.93      1.46        -53.34      
H           116.4       3.84        -52.41      
C           115.8       1.75        -52.28      
C           115.2       0.9         -51.34      
C           113.78      8.95        -47.38      
C           113.83      8.58        -48.73      
C           114.46      8.01        -46.48      
C           114.42      7.36        -49.09      
C           114.92      6.4         -48.22      
C           114.42      6.94        -50.45      
C           114.99      6.78        -46.9       
C           115.59      5.93        -45.89      
N           116.02      4.64        -46.27      
C           115.95      4.19        -47.64      
C           113.91      7.76        -51.59      
N           113.49      9.01        -51.21      
C           113.41      9.41        -49.85      
O           113.83      7.37        -52.79      
O           112.73      10.32       -49.55      
O           115.49      6.25        -44.75      
O           116.51      3.21        -47.97      
C           117.17      4.14        -45.49      
C           113.6       10.12       -52.19      
H           117.69      4.99        -45.13      
H           117.88      3.62        -46.1       
H           116.87719   3.50559     -44.65341   
H           112.9       10.79       -51.82      
H           113.2       9.72        -53.17      
H           114.61536   10.51641    -52.19      
H           114.65      8.33        -45.47      
H           114.72      5.36        -51.89      
C           114.76      5.66        -50.86      
C           115.38      5.11        -48.66      
C           115.34      4.68        -50.01      
C           113.4       12.12       -45.03      
C           113.98      12.54       -46.21      
S           112.98      10.45       -45.09      
H           114.44      11.64       -48.24      
H           114.22      13.56       -46.5       
C           114.05      11.49       -47.23      
C           113.66      10.29       -46.7       
C           112.45      13.68       -41.55      
C           113.06      14.63       -42.25      
S           112.39      12.19       -42.44      
H           113.74      14.87       -44.3       
H           113.22      15.65       -41.9       
C           113.33      14.16       -43.61      
C           113.12      12.86       -43.82      
H           68.33       8.04        9.86        
H           111.59      13.94       -40.85      
