512

C           61.06       1.59        40.13       
C           62.41       1.53        40.19       
S           60.63       3.23        40.5        
H           64.18       2.82        40.86       
H           62.91       0.59        39.99       
C           63.12       2.7         40.61       
C           62.24       3.77        40.76       
C           56.23       -2.21       38.02       
C           57.4        -1.78       37.4        
C           56.06       -1.91       39.34       
C           58.33       -1.05       38.17       
C           58.06       -0.74       39.51       
C           59.56       -0.6        37.63       
C           56.93       -1.29       40.12       
C           56.66       -1.27       41.53       
N           57.6        -0.55       42.34       
C           58.66       0.15        41.77       
C           60.07       -1.05       36.37       
N           59.18       -1.82       35.58       
C           57.84       -2.18       36.03       
O           61.21       -0.84       35.88       
O           57.24       -3.01       35.36       
O           55.69       -1.81       42.04       
O           59.44       0.76        42.56       
C           57.18       -0.11       43.69       
C           59.73       -2.66       34.45       
H           57.49       1.02        43.82       
H           56.07       -0.16       43.71       
H           57.55757    -0.68666    44.53439    
H           59.2        -3.57       34.3        
H           60.72       -2.96       34.72       
H           59.75089    -2.17263    33.47525    
H           55.26       -2.38       39.82       
H           61.32       0.32        37.98       
C           60.35       0.15        38.39       
C           59.01       -0.02       40.3        
C           60.16       0.52        39.74       
C           53.1        -4.33       36.83       
C           53.34       -3.41       35.91       
S           54.37       -4.35       38.02       
H           54.76       -1.79       35.56       
H           52.68       -3.28       35.09       
C           54.45       -2.6        36.17       
C           55.09       -2.88       37.38       
C           50.55       -7.27       37.34       
C           50.36       -6.75       36.05       
S           51.73       -6.33       38.22       
H           51.17       -5.11       34.8        
H           49.63       -7.15       35.3        
C           51.2        -5.62       35.78       
C           52.06       -5.31       36.8        
C           48.65       -10.64      38.36       
C           49.59       -10.3       39.34       
S           48.87       -9.51       37.11       
H           51.16       -8.74       39.72       
H           49.95       -10.95      40.21       
C           50.41       -9.15       39.05       
C           50.09       -8.55       37.9        
C           44.01       -15.38      38.37       
C           44.45       -14.43      39.33       
C           44.74       -15.35      37.18       
C           45.53       -13.52      39.05       
C           46.24       -13.61      37.84       
C           45.9        -12.55      39.98       
C           45.79       -14.48      36.91       
C           46.35       -14.65      35.53       
N           47.41       -13.76      35.28       
C           47.96       -12.89      36.23       
C           45.22       -12.44      41.27       
N           44.09       -13.22      41.43       
C           43.6        -14.21      40.59       
O           45.64       -11.77      42.18       
O           42.52       -14.67      40.76       
O           45.88       -15.38      34.71       
O           49.1        -12.35      35.98       
C           47.89       -13.7       33.9        
C           43.36       -13.04      42.7        
H           47.96       -14.76      33.64       
H           48.85       -13.22      33.8        
H           47.15827    -13.24533   33.23221    
H           42.28       -13.02      42.57       
H           43.62       -12.12      43.08       
H           43.62665    -13.78381   43.45083    
H           44.43       -15.9       36.37       
H           47.2        -10.99      40.48       
C           46.99       -11.72      39.71       
C           47.29       -12.73      37.54       
C           47.75       -11.78      38.51       
C           41.45       -18.33      38.22       
C           41.82       -18.15      39.57       
S           42.33       -17.24      37.22       
H           43.13       -16.9       40.71       
H           41.47       -18.77      40.38       
C           42.83       -17.21      39.74       
C           43.25       -16.59      38.54       
C           39.14       -20.33      35.87       
C           38.37       -20.1       37.02       
S           40.76       -19.66      36.03       
H           38.71       -18.96      38.91       
H           37.31       -20.47      37.15       
C           39.16       -19.32      37.97       
C           40.4        -19.06      37.58       
C           38.87       -22.32      32.52       
C           37.64       -22.0       32.94       
S           40.0        -21.9       33.75       
H           36.61       -20.96      34.64       
H           36.79       -22.37      32.4        
C           37.57       -21.25      34.16       
C           38.79       -21.0       34.66       
C           38.88       -26.23      27.14       
C           38.76       -26.56      28.51       
C           39.24       -24.96      26.83       
C           38.87       -25.5       29.48       
C           39.18       -24.16      29.15       
C           38.8        -25.78      30.88       
C           39.4        -23.97      27.8        
C           39.74       -22.62      27.21       
N           39.86       -21.57      28.17       
C           39.74       -21.77      29.54       
C           38.5        -27.15      31.31       
N           38.4        -28.13      30.34       
C           38.58       -27.99      28.95       
O           38.39       -27.37      32.46       
O           38.17       -28.95      28.21       
O           40.09       -22.45      26.04       
O           39.99       -20.76      30.25       
C           40.6        -20.35      27.7        
C           38.54       -29.56      30.75       
H           41.58       -20.51      27.34       
H           40.67       -19.64      28.52       
H           40.00248    -19.79417   26.97742    
H           37.97       -30.18      30.16       
H           38.14       -29.66      31.74       
H           39.56911    -29.90539   30.84868    
H           39.6        -24.7       25.8        
H           38.76       -24.92      32.83       
C           38.91       -24.72      31.77       
C           39.34       -23.11      30.07       
C           39.11       -23.36      31.41       
C           40.31       -29.0       24.66       
C           39.38       -28.29      23.91       
S           40.41       -28.38      26.3        
H           38.1        -26.49      24.3        
H           39.22       -28.44      22.8        
C           38.72       -27.29      24.74       
C           39.14       -27.2       26.08       
C           42.64       -31.95      23.91       
C           41.61       -32.05      23.02       
S           42.48       -30.64      25.06       
H           40.0        -30.8       22.5        
H           41.56       -32.75      22.26       
C           40.83       -30.94      23.12       
C           41.04       -30.2       24.25       
C           46.12       -33.43      24.36       
C           45.54       -34.26      23.43       
S           45.01       -32.34      25.01       
H           43.54       -34.3       22.37       
H           46.02       -35.13      23.01       
C           44.19       -33.8       23.08       
C           43.79       -32.82      23.93       
C           52.15       -33.02      26.9        
C           50.96       -33.4       27.45       
C           52.17       -32.78      25.54       
C           49.82       -33.49      26.61       
C           49.86       -33.25      25.14       
C           48.55       -33.84      27.13       
C           51.12       -32.92      24.62       
C           51.33       -32.67      23.14       
N           50.26       -32.86      22.3        
C           48.95       -33.19      22.84       
C           48.4        -34.19      28.59       
N           49.56       -34.01      29.4        
C           50.87       -33.73      28.89       
O           47.28       -34.35      29.03       
O           51.85       -33.86      29.66       
O           52.45       -32.42      22.66       
O           48.09       -33.52      21.99       
C           50.49       -32.82      20.82       
C           49.33       -34.34      30.84       
H           51.09       -31.96      20.5        
H           49.54       -32.74      20.25       
H           50.91421    -33.75471   20.45331    
H           50.09       -35.02      31.13       
H           48.43       -34.86      30.98       
H           49.24469    -33.42294   31.42294    
H           53.12       -32.62      25.0        
H           46.53       -33.91      26.82       
C           47.46       -33.75      26.3        
C           48.75       -33.39      24.3        
C           47.48       -33.55      24.89       
C           55.83       -32.62      28.17       
C           55.43       -33.85      28.49       
S           54.6        -31.8       27.35       
H           53.73       -35.21      28.02       
H           56.15       -34.53      29.02       
C           54.14       -34.2       28.05       
C           53.53       -33.11      27.42       
C           59.2        -30.59      28.18       
C           59.32       -31.57      29.07       
S           57.81       -30.86      27.25       
H           58.01       -33.0       30.0        
H           60.15       -31.73      29.73       
C           58.08       -32.24      29.25       
C           57.14       -31.96      28.34       
C           62.41       -28.75      26.7        
C           61.29       -27.97      26.46       
S           61.94       -30.15      27.6        
H           59.09       -28.19      26.63       
H           61.31       -27.07      25.84       
C           60.05       -28.56      26.97       
C           60.25       -29.7       27.69       
C           67.56       -27.29      22.97       
C           67.01       -28.47      23.47       
C           67.04       -26.11      23.48       
C           65.89       -28.39      24.31       
C           65.28       -27.17      24.7        
C           65.34       -29.57      24.81       
C           65.96       -26.06      24.32       
C           65.48       -24.66      24.67       
N           64.43       -24.67      25.6        
C           63.76       -25.81      26.07       
C           65.68       -30.9       24.28       
N           66.76       -30.98      23.45       
C           67.46       -29.83      23.05       
O           65.15       -31.92      24.73       
O           68.27       -29.95      22.17       
O           66.11       -23.7       24.28       
O           62.96       -25.69      27.02       
C           64.05       -23.4       26.18       
C           67.54       -32.18      23.57       
H           64.85       -22.9       26.62       
H           63.35       -23.51      27.02       
H           63.43026    -22.83725   25.4819     
H           68.18       -32.39      22.72       
H           66.95       -33.05      23.72       
H           68.23364    -32.18701   24.41078    
H           67.48       -25.23      23.02       
H           63.98       -30.48      26.1        
C           64.35       -29.49      25.75       
C           64.23       -27.14      25.65       
C           63.72       -28.32      26.23       
C           70.29       -26.58      20.31       
C           69.03       -26.19      19.88       
S           70.3        -27.1       21.95       
H           66.97       -26.31      20.72       
H           68.74       -25.69      18.93       
C           68.01       -26.5       20.83       
C           68.54       -27.05      21.96       
C           73.45       -25.48      18.2        
C           73.88       -26.34      19.24       
S           71.74       -25.54      18.12       
H           72.82       -27.53      20.87       
H           74.93       -26.49      19.51       
C           72.78       -26.88      19.98       
C           71.53       -26.47      19.58       
C           75.78       -23.74      15.52       
C           74.74       -22.94      15.83       
S           75.61       -25.17      16.38       
H           72.95       -22.96      17.18       
H           74.62       -21.95      15.42       
C           73.84       -23.44      16.85       
C           74.19       -24.69      17.22       
C           79.81       -22.33      10.46       
C           78.45       -22.56      10.6        
C           80.53       -22.18      11.61       
C           77.89       -22.84      11.83       
C           78.64       -22.85      13.01       
C           76.47       -22.96      12.0        
C           79.98       -22.37      12.88       
C           80.87       -22.35      14.08       
N           80.25       -22.59      15.32       
C           78.9        -22.95      15.49       
C           75.53       -22.79      10.86       
N           76.17       -22.67      9.65        
C           77.56       -22.65      9.43        
O           74.34       -22.82      11.03       
O           77.98       -22.49      8.33        
O           82.04       -22.13      14.02       
O           78.55       -23.18      16.66       
C           81.14       -22.62      16.53       
C           75.33       -22.38      8.45        
H           82.06       -23.0       16.2        
H           80.71       -23.39      17.19       
H           81.28564    -21.63518   16.97386    
H           75.83       -21.62      7.83        
H           74.35       -22.05      8.78        
H           75.17022    -23.30396   7.89424     
H           81.59       -21.9       11.69       
H           74.82       -23.51      13.24       
C           75.9        -23.34      13.23       
C           78.04       -23.17      14.3        
C           76.7        -23.51      14.37       
C           81.99       -20.89      7.57        
C           82.36       -22.16      7.81        
S           80.65       -20.41      8.51        
H           81.72       -23.79      9.17        
H           83.23       -22.65      7.33        
C           81.57       -22.78      8.81        
C           80.64       -21.94      9.32        
C           83.69       -18.1       5.42        
C           84.11       -19.3       4.97        
S           82.55       -18.31      6.71        
H           83.53       -21.41      5.16        
H           84.79       -19.38      4.16        
C           83.45       -20.41      5.52        
C           82.54       -20.05      6.52        
C           85.05       -14.57      5.95        
C           85.82       -15.25      4.98        
S           83.67       -15.6       6.32        
H           85.9        -17.11      3.82        
H           86.74       -14.79      4.56        
C           85.33       -16.48      4.46        
C           84.23       -16.78      5.24        
C           86.43       -8.63       8.5         
C           85.69       -9.04       7.43        
C           87.06       -9.57       9.28        
C           85.58       -10.39      7.11        
C           86.17       -11.42      7.88        
C           84.88       -10.85      5.93        
C           86.8        -10.9       9.01        
C           87.34       -11.8       10.1        
N           87.13       -13.11      9.88        
C           86.6        -13.68      8.66        
C           84.37       -9.86       4.89        
N           84.71       -8.51       5.18        
C           85.22       -8.05       6.43        
O           83.84       -10.28      3.87        
O           85.27       -6.82       6.55        
O           87.99       -11.3       11.0        
O           86.5        -14.91      8.52        
C           87.44       -14.05      11.04       
C           84.85       -7.64       4.03        
H           88.47       -13.95      11.46       
H           87.33       -15.09      10.73       
H           86.75293    -13.9459    11.87976    
H           84.88       -6.61       4.36        
H           83.96       -7.6        3.44        
H           85.75376    -7.82215    3.44851     
H           87.75       -9.37       10.12       
H           84.07       -12.43      4.86        
C           84.78       -12.22      5.68        
C           85.98       -12.8       7.62        
C           85.36       -13.23      6.49        
C           87.94       -5.08       9.27        
C           87.03       -5.38       10.29       
S           88.01       -6.35       8.09        
H           85.81       -7.2        10.71       
H           86.81       -4.66       11.15       
C           86.53       -6.71       10.11       
C           86.82       -7.28       8.89        
C           90.43       -2.23       10.1        
C           90.41       -2.33       8.75        
S           89.36       -3.37       10.85       
H           89.37       -3.64       7.28        
H           91.09       -1.82       8.04        
C           89.59       -3.4        8.3         
C           88.88       -3.97       9.33        
C           93.12       -0.01       11.86       
C           92.3        -0.51       12.82       
S           92.69       -0.69       10.36       
H           90.38       -1.74       12.88       
H           92.47       -0.35       13.88       
C           91.15       -1.26       12.32       
C           91.29       -1.42       10.97       
C           98.48       3.57        13.53       
C           98.01       2.3         14.02       
C           97.7        4.21        12.51       
C           96.8        1.78        13.48       
C           96.1        2.41        12.39       
C           96.23       0.54        13.92       
C           96.58       3.64        11.9        
C           95.85       4.49        10.97       
N           94.83       3.85        10.26       
C           94.33       2.6         10.67       
C           96.84       -0.19       15.01       
N           97.96       0.4         15.66       
C           98.63       1.5         15.1        
O           96.45       -1.27       15.45       
O           99.73       1.79        15.56       
O           96.29       5.57        10.66       
O           93.47       2.11        10.0        
C           93.76       4.8         9.85        
C           98.12       0.13        17.08       
H           93.59       5.51        10.68       
H           92.86       4.21        9.77        
H           93.99134    5.36389     8.94633     
H           99.11       0.39        17.33       
H           97.98       -0.98       17.11       
H           97.43825    0.57493     17.80481    
H           98.07       5.17        12.19       
H           94.54       -0.71       13.81       
C           95.09       0.03        13.31       
C           94.92       1.88        11.8        
C           94.4        0.68        12.25       
C           101.72      5.84        13.52       
C           102.09      4.5         13.53       
S           100.02      5.98        13.77       
H           101.08      2.57        13.68       
H           103.09      4.13        13.6        
C           101.0       3.65        13.59       
C           99.74       4.25        13.57       
C           104.32      8.67        12.58       
C           103.12      9.22        12.94       
S           104.25      7.01        13.11       
H           101.14      8.58        13.5        
H           102.89      10.28       12.78       
C           102.13      8.33        13.46       
C           102.55      7.04        13.5        
C           106.94      10.54       10.17       
C           107.57      9.52        10.82       
S           105.25      10.57       10.74       
H           107.06      7.9         12.25       
H           108.63      9.23        10.68       
C           106.73      8.77        11.77       
C           105.46      9.19        11.81       
C           110.49      14.34       6.23        
C           110.32      12.99       6.29        
C           109.7       15.21       7.06        
C           109.48      12.49       7.28        
C           108.56      13.3        8.04        
C           109.22      11.1        7.38        
C           108.76      14.69       7.94        
C           108.04      15.64       8.77        
N           107.11      15.08       9.64        
C           106.93      13.72       9.82        
C           109.92      10.06       6.55        
N           110.74      10.61       5.55        
C           110.97      12.0        5.4         
O           109.61      8.87        6.54        
O           111.63      12.39       4.39        
O           108.31      16.84       8.6         
O           106.11      13.44       10.72       
C           106.65      15.95       10.7        
C           111.21      9.78        4.39        
H           107.46      16.58       10.98       
H           106.56      15.35       11.62       
H           105.76122   16.4874     10.36929    
H           111.04      10.36       3.46        
H           110.6       8.9         4.44        
H           112.26563   9.51786     4.46085     
H           109.66      16.28       6.98        
H           108.21      9.5         8.33        
C           108.32      10.57       8.26        
C           107.7       12.72       9.01        
C           107.62      11.32       9.19        
C           113.67      16.12       4.53        
C           112.6       16.91       4.33        
S           113.21      14.75       5.5         
H           110.45      16.86       4.81        
H           112.6       17.72       3.61        
C           111.38      16.36       4.84        
C           111.51      15.15       5.45        
C           117.44      15.56       3.36        
C           116.99      16.74       2.83        
S           116.13      14.81       4.31        
H           115.24      18.06       2.91        
H           117.6       17.28       2.18        
C           115.69      17.1        3.21        
C           115.07      16.18       3.99        
C           120.54      13.29       3.7         
C           121.01      14.51       3.25        
S           118.86      13.39       4.04        
H           120.07      16.43       2.43        
H           122.03      14.74       3.0         
C           120.01      15.46       2.96        
C           118.81      14.98       3.41        
C           124.79      8.3         4.09        
C           123.56      8.44        3.49        
C           125.31      9.38        4.8         
C           122.88      9.64        3.67        
C           123.35      10.7        4.43        
C           121.63      9.91        2.96        
C           124.57      10.53       5.01        
C           125.28      11.56       5.82        
N           124.62      12.78       5.93        
C           123.33      13.0        5.36        
C           121.07      8.92        1.94        
N           121.81      7.71        1.88        
C           122.94      7.33        2.63        
O           120.15      9.19        1.26        
O           123.49      6.3         2.39        
O           126.34      11.35       6.41        
O           122.87      14.13       5.57        
C           125.27      13.9        6.72        
C           121.48      6.84        0.75        
H           125.4       13.55       7.71        
H           124.59      14.8        6.86        
H           126.20896   14.26555    6.30428     
H           122.35      6.37        0.36        
H           120.93      7.37        -0.09       
H           120.88409   5.98248     1.06249     
H           126.29      9.35        5.31        
H           120.05      11.19       2.57        
C           120.96      11.03       3.1         
C           122.68      11.93       4.52        
C           121.46      12.11       3.9         
C           127.15      5.23        4.65        
C           127.78      6.07        3.76        
S           125.54      5.77        5.06        
H           127.09      7.92        2.59        
H           128.69      5.79        3.23        
C           126.85      7.11        3.33        
C           125.73      7.19        4.15        
C           128.03      1.6         5.69        
C           129.14      2.39        5.81        
S           126.65      2.61        5.27        
H           129.7       4.47        5.57        
H           130.12      1.95        6.0         
C           128.93      3.74        5.53        
C           127.63      4.04        5.26        
H           62.49       4.78        40.83       
H           128.12      0.55        5.83        
