512

C           75.22       1.4         2.31        
C           76.05       0.66        1.58        
S           74.7        2.81        1.55        
H           76.99       0.94        -0.41       
H           76.54       -0.3        1.85        
C           76.29       1.32        0.34        
C           75.65       2.52        0.12        
C           72.78       -1.33       7.87        
C           72.17       -0.72       6.73        
C           74.18       -1.4        7.88        
C           73.02       -0.09       5.75        
C           74.44       -0.21       5.76        
C           72.46       0.53        4.61        
C           74.98       -0.84       6.87        
C           76.46       -1.18       6.99        
N           77.27       -0.76       5.92        
C           76.77       -0.04       4.83        
C           70.99       0.6         4.3         
N           70.15       0.09        5.33        
C           70.67       -0.52       6.54        
O           70.47       1.03        3.26        
O           69.8        -0.88       7.38        
O           76.88       -1.98       7.8         
O           77.62       0.29        4.02        
C           78.71       -1.2        5.86        
C           68.75       -0.22       5.03        
H           79.34       -0.43       5.39        
H           79.09       -1.39       6.82        
H           78.81649    -2.06612    5.20686     
H           68.46       -1.17       5.53        
H           68.74       -0.45       3.93        
H           68.07414    0.59779     5.28007     
H           74.7        -2.0        8.57        
H           72.86       1.25        2.67        
C           73.29       0.96        3.6         
C           75.26       0.25        4.67        
C           74.66       0.94        3.6         
C           71.09       -4.37       9.95        
C           72.24       -3.95       10.62       
S           70.94       -3.47       8.47        
H           73.72       -2.35       10.42       
H           72.6        -4.44       11.53       
C           72.88       -2.82       9.95        
C           72.17       -2.34       8.86        
C           68.19       -7.01       9.6         
C           69.06       -7.49       10.54       
S           68.75       -5.45       9.08        
H           70.96       -6.98       11.46       
H           68.98       -8.44       11.02       
C           70.13       -6.67       10.83       
C           70.1        -5.44       10.17       
C           65.09       -8.44       8.0         
C           66.01       -9.35       7.86        
S           65.58       -7.02       8.84        
H           68.08       -9.71       8.61        
H           65.77       -10.34      7.49        
C           67.2        -9.07       8.57        
C           67.13       -7.73       8.96        
C           58.92       -8.91       5.88        
C           60.16       -8.94       5.21        
C           58.95       -8.59       7.24        
C           61.37       -8.84       5.9         
C           61.35       -8.61       7.35        
C           62.68       -9.03       5.28        
C           60.12       -8.49       7.98        
C           59.99       -8.22       9.45        
N           61.15       -8.24       10.24       
C           62.41       -8.43       9.64        
C           62.87       -9.08       3.77        
N           61.65       -9.03       3.04        
C           60.32       -9.07       3.66        
O           63.93       -9.02       3.27        
O           59.35       -9.16       2.9         
O           58.92       -7.83       9.95        
O           63.4        -8.4        10.31       
C           61.06       -7.87       11.67       
C           61.67       -8.39       1.61        
H           60.56       -6.92       11.75       
H           62.03       -7.7        11.97       
H           60.50615    -8.6177     12.2377     
H           61.12       -9.13       1.07        
H           62.73       -8.37       1.36        
H           61.221      -7.40219    1.50638     
H           58.06       -8.64       7.89        
H           64.68       -9.07       5.55        
C           63.79       -8.92       6.08        
C           62.54       -8.51       8.1         
C           63.73       -8.67       7.47        
C           55.3        -10.35      5.45        
C           56.07       -11.12      4.66        
S           56.18       -9.25       6.35        
H           58.18       -11.21      4.18        
H           55.73       -11.94      4.02        
C           57.42       -10.64      4.69        
C           57.64       -9.62       5.53        
C           51.51       -11.16      5.55        
C           51.7        -10.02      6.25        
S           52.99       -11.87      5.04        
H           53.38       -8.54       6.64        
H           50.81       -9.4        6.53        
C           53.05       -9.5        6.19        
C           53.86       -10.44      5.65        
C           48.84       -13.45      3.98        
C           48.17       -12.53      4.77        
S           50.56       -13.18      4.12        
H           48.76       -10.79      6.07        
H           47.09       -12.47      4.85        
C           49.05       -11.59      5.38        
C           50.33       -11.85      5.14        
C           45.61       -18.26      0.78        
C           46.89       -18.12      1.34        
C           44.81       -17.1       0.75        
C           47.33       -16.96      1.92        
C           46.55       -15.74      1.91        
C           48.6        -16.8       2.5         
C           45.28       -15.84      1.28        
C           44.27       -14.74      1.24        
N           44.83       -13.51      1.67        
C           46.11       -13.28      2.23        
C           49.57       -17.9       2.49        
N           49.14       -19.12      1.96        
C           47.89       -19.24      1.37        
O           50.68       -17.83      2.91        
O           47.73       -20.3       0.82        
O           43.2        -14.78      0.67        
O           46.49       -12.15      2.52        
C           43.81       -12.44      1.74        
C           49.97       -20.32      2.26        
H           43.27       -12.45      0.82        
H           44.28       -11.48      1.76        
H           43.20429    -12.53374   2.64135     
H           49.32       -21.2       2.55        
H           50.63       -20.09      3.07        
H           50.55768    -20.6103    1.3891      
H           43.85       -17.04      0.3         
H           49.97       -15.59      3.47        
C           49.01       -15.55      2.94        
C           46.99       -14.49      2.49        
C           48.24       -14.39      3.0         
C           43.47       -20.68      -1.05       
C           44.67       -20.78      -1.69       
S           43.42       -19.79      0.39        
H           46.62       -19.78      -1.39       
H           44.9        -21.24      -2.68       
C           45.62       -20.0       -1.03       
C           45.05       -19.31      0.01        
C           40.32       -21.37      -3.27       
C           39.89       -21.26      -2.03       
S           42.03       -21.17      -3.39       
H           40.78       -21.14      -0.05       
H           38.91       -21.48      -1.65       
C           40.92       -21.09      -1.1        
C           42.21       -21.02      -1.62       
C           39.18       -22.3       -6.94       
C           38.09       -22.09      -6.18       
S           40.57       -22.2       -5.91       
H           37.67       -21.47      -4.03       
H           37.09       -22.12      -6.55       
C           38.41       -21.77      -4.82       
C           39.72       -21.75      -4.5        
C           40.17       -24.05      -13.25      
C           40.64       -22.99      -12.47      
C           39.28       -24.95      -12.69      
C           40.18       -22.87      -11.11      
C           39.26       -23.79      -10.51      
C           40.58       -21.83      -10.31      
C           38.89       -24.86      -11.36      
C           37.98       -25.95      -10.89      
N           37.45       -25.77      -9.57       
C           37.79       -24.71      -8.71       
C           41.49       -20.74      -10.78      
N           41.81       -20.83      -12.14      
C           41.53       -21.89      -13.05      
O           41.87       -19.84      -10.02      
O           42.08       -21.92      -14.16      
O           37.73       -26.85      -11.67      
O           37.21       -24.61      -7.61       
C           36.69       -26.86      -9.0        
C           42.67       -19.79      -12.74      
H           36.69       -26.86      -7.86       
H           37.33       -27.67      -9.24       
H           35.68756    -26.94531   -9.41946    
H           43.51       -20.18      -13.35      
H           43.09       -19.32      -11.9       
H           42.1214     -19.03479   -13.30285   
H           38.94       -25.72      -13.32      
H           40.5        -20.82      -8.47       
C           40.16       -21.76      -8.97       
C           38.76       -23.62      -9.19       
C           39.24       -22.64      -8.35       
C           41.0        -24.89      -17.07      
C           39.75       -24.23      -17.01      
S           41.74       -24.98      -15.5       
H           38.39       -23.61      -15.25      
H           39.12       -24.08      -17.88      
C           39.38       -24.01      -15.62      
C           40.36       -24.28      -14.69      
C           42.76       -26.54      -20.27      
C           41.38       -26.62      -20.31      
S           43.19       -25.84      -18.73      
H           39.69       -26.07      -19.03      
H           40.91       -27.22      -21.09      
C           40.72       -26.13      -19.19      
C           41.53       -25.52      -18.28      
C           46.05       -27.3       -22.45      
C           44.99       -27.87      -23.07      
S           45.45       -26.43      -21.02      
H           42.82       -28.07      -22.68      
H           45.13       -28.42      -23.97      
C           43.75       -27.65      -22.39      
C           43.81       -26.95      -21.23      
C           52.24       -28.13      -24.44      
C           51.45       -26.99      -24.33      
C           51.72       -29.32      -23.98      
C           50.14       -27.08      -23.83      
C           49.63       -28.3       -23.32      
C           49.28       -25.94      -23.63      
C           50.46       -29.39      -23.48      
C           50.0        -30.74      -23.2       
N           48.74       -30.87      -22.6       
C           47.9        -29.84      -22.29      
C           49.69       -24.56      -23.9       
N           51.05       -24.5       -24.36      
C           51.94       -25.61      -24.6       
O           48.97       -23.58      -23.68      
O           53.07       -25.38      -25.03      
O           50.57       -31.78      -23.69      
O           46.85       -30.14      -21.77      
C           47.97       -32.15      -23.08      
C           51.31       -23.23      -25.08      
H           48.05       -32.27      -24.19      
H           46.85       -32.12      -22.96      
H           48.28682    -32.99965   -22.47517   
H           52.28       -22.77      -24.87      
H           50.68       -22.5       -24.66      
H           51.02557    -23.29564   -26.13019   
H           52.34       -30.16      -24.05      
H           47.27       -25.36      -23.31      
C           48.0        -26.16      -23.18      
C           48.32       -28.49      -22.84      
C           47.47       -27.41      -22.85      
C           55.84       -28.42      -26.12      
C           55.86       -28.79      -24.77      
S           54.15       -28.02      -26.52      
H           54.43       -29.07      -23.11      
H           56.74       -29.19      -24.34      
C           54.64       -28.77      -24.11      
C           53.65       -28.22      -24.86      
C           59.2        -28.77      -28.15      
C           58.46       -27.74      -28.75      
S           58.26       -29.43      -26.8       
H           56.47       -26.84      -28.52      
H           58.84       -27.09      -29.56      
C           57.18       -27.54      -28.15      
C           56.97       -28.31      -27.05      
C           63.1        -28.47      -28.64      
C           62.87       -29.76      -28.27      
S           61.62       -27.58      -28.68      
H           61.09       -31.01      -27.76      
H           63.6        -30.51      -28.13      
C           61.47       -30.0       -28.03      
C           60.63       -28.93      -28.25      
C           69.3        -26.77      -29.5       
C           68.42       -27.59      -30.25      
C           68.88       -26.08      -28.41      
C           67.11       -27.69      -29.87      
C           66.62       -26.93      -28.77      
C           66.26       -28.65      -30.51      
C           67.51       -26.12      -28.06      
C           67.09       -25.34      -26.86      
N           65.78       -25.55      -26.41      
C           64.85       -26.31      -27.14      
C           66.71       -29.43      -31.69      
N           68.02       -29.3       -32.03      
C           68.91       -28.33      -31.45      
O           66.05       -30.37      -32.06      
O           70.03       -28.21      -31.92      
O           67.91       -24.63      -26.22      
O           63.73       -26.31      -26.82      
C           65.61       -25.46      -24.92      
C           68.43       -29.98      -33.23      
H           66.47       -26.07      -24.52      
H           64.7        -25.91      -24.61      
H           65.74867    -24.44075   -24.55945   
H           68.89       -29.36      -33.92      
H           67.53       -30.3       -33.84      
H           68.93016    -30.931     -33.04684   
H           69.53       -25.6       -27.69      
H           64.41       -29.56      -30.49      
C           64.99       -28.74      -30.05      
C           65.27       -27.06      -28.36      
C           64.5        -28.04      -28.94      
C           73.17       -26.47      -30.2       
C           72.93       -27.71      -29.75      
S           71.72       -25.53      -30.2       
H           71.21       -28.92      -29.05      
H           73.71       -28.42      -29.8       
C           71.52       -27.95      -29.4       
C           70.77       -26.79      -29.51      
C           76.96       -25.81      -30.8       
C           76.34       -24.81      -31.5       
S           75.83       -26.84      -29.96      
H           74.16       -24.16      -31.82      
H           76.92       -24.06      -31.99      
C           74.89       -24.9       -31.39      
C           74.49       -25.96      -30.66      
C           80.54       -25.39      -29.16      
C           80.33       -26.7       -29.34      
S           79.27       -24.53      -29.97      
H           78.63       -28.0       -29.8       
H           80.97       -27.46      -28.97      
C           78.97       -27.0       -29.76      
C           78.36       -25.93      -30.34      
C           86.41       -23.51      -26.88      
C           86.04       -24.2       -28.0       
C           85.43       -22.89      -26.15      
C           84.67       -24.44      -28.24      
C           83.63       -23.74      -27.51      
C           84.14       -25.25      -29.27      
C           84.11       -22.86      -26.5       
C           83.18       -22.2       -25.5       
N           81.8        -22.44      -25.72      
C           81.25       -23.24      -26.79      
C           85.09       -26.01      -30.14      
N           86.43       -25.69      -30.0       
C           86.93       -24.87      -28.99      
O           84.68       -26.84      -31.02      
O           88.15       -24.69      -28.93      
O           83.58       -21.75      -24.45      
O           80.05       -23.29      -26.97      
C           80.91       -22.38      -24.58      
C           87.39       -26.09      -31.07      
H           81.44       -22.58      -23.7       
H           80.17       -23.16      -24.56      
H           80.40182    -21.41934   -24.49646   
H           87.93       -25.22      -31.42      
H           86.75       -26.37      -31.93      
H           88.05444    -26.92055   -30.83167   
H           85.71       -22.36      -25.26      
H           82.48       -26.06      -30.24      
C           82.82       -25.41      -29.45      
C           82.23       -23.93      -27.69      
C           81.85       -24.86      -28.66      
C           89.77       -23.14      -24.77      
C           90.05       -22.74      -26.06      
S           88.17       -23.77      -24.74      
H           88.89       -22.43      -27.95      
H           91.03       -22.34      -26.29      
C           88.88       -22.83      -26.92      
C           87.78       -23.28      -26.31      
C           92.63       -23.24      -22.05      
C           91.52       -23.88      -21.48      
S           92.31       -22.7       -23.71      
H           89.44       -24.31      -22.04      
H           91.56       -24.33      -20.53      
C           90.41       -23.95      -22.43      
C           90.66       -23.33      -23.61      
C           96.16       -21.56      -21.03      
C           95.5        -21.94      -19.86      
S           95.13       -22.08      -22.32      
H           93.61       -22.91      -19.25      
H           95.75       -21.69      -18.82      
C           94.22       -22.6       -20.07      
C           93.84       -22.77      -21.43      
C           101.46      -17.71      -20.62      
C           100.32      -17.74      -21.41      
C           101.63      -18.74      -19.72      
C           99.33       -18.73      -21.22      
C           99.49       -19.73      -20.31      
C           98.23       -18.79      -22.12      
C           100.69      -19.76      -19.58      
C           101.06      -20.82      -18.59      
N           100.1       -21.8       -18.5       
C           98.89       -21.95      -19.27      
C           97.95       -17.8       -23.21      
N           98.91       -16.8       -23.27      
C           100.02      -16.66      -22.39      
O           96.99       -17.98      -24.01      
O           100.61      -15.63      -22.53      
O           102.21      -20.86      -18.18      
O           98.21       -23.0       -19.15      
C           100.49      -22.67      -17.41      
C           99.1        -16.04      -24.53      
H           101.5       -22.93      -17.48      
H           99.85       -23.61      -17.42      
H           100.32651   -22.17954   -16.45041   
H           99.22       -14.93      -24.28      
H           98.1        -16.15      -24.95      
H           99.83245    -16.51394   -25.18346   
H           102.6       -18.77      -19.2       
H           96.42       -19.88      -22.54      
C           97.3        -19.8       -21.91      
C           98.6        -20.85      -20.23      
C           97.47       -20.87      -21.02      
C           104.86      -15.96      -21.64      
C           104.62      -15.98      -20.18      
S           103.51      -16.76      -22.43      
H           103.18      -16.75      -18.82      
H           105.22      -15.41      -19.48      
C           103.41      -16.62      -19.79      
C           102.73      -17.07      -20.86      
C           107.25      -14.02      -24.01      
C           107.91      -14.22      -22.82      
S           105.73      -14.79      -24.01      
H           107.33      -15.13      -20.8       
H           108.96      -13.88      -22.69      
C           107.12      -14.91      -21.84      
C           105.98      -15.34      -22.35      
C           108.63      -11.47      -26.48      
C           107.33      -11.79      -26.9       
S           109.04      -12.45      -25.15      
H           105.78      -13.26      -26.51      
H           106.91      -11.17      -27.67      
C           106.77      -12.88      -26.22      
C           107.53      -13.22      -25.18      
C           112.18      -6.34       -28.58      
C           112.53      -7.72       -28.39      
C           110.85      -5.94       -28.38      
C           111.45      -8.54       -27.91      
C           110.13      -8.07       -27.62      
C           111.74      -9.85       -27.56      
C           109.83      -6.76       -27.96      
C           108.46      -6.17       -27.75      
N           107.5       -7.08       -27.31      
C           107.74      -8.45       -27.0       
C           113.06      -10.49      -27.67      
N           114.08      -9.69       -28.22      
C           113.89      -8.4        -28.63      
O           113.28      -11.66      -27.49      
O           114.77      -7.9        -29.23      
O           108.24      -4.98       -27.98      
O           106.72      -9.07       -26.62      
C           106.09      -6.79       -27.61      
C           115.45      -10.02      -27.92      
H           105.4       -7.62       -27.47      
H           105.97      -6.63       -28.67      
H           105.72183   -5.87666    -27.14271   
H           116.11      -9.66       -28.7       
H           115.52      -11.1       -27.86      
H           115.83631   -9.47917    -27.05607   
H           110.61      -4.84       -28.49      
H           111.0       -11.67      -26.94      
C           110.71      -10.66      -27.15      
C           109.08      -8.96       -27.24      
C           109.36      -10.31      -26.93      
C           114.02      -3.14       -30.11      
C           114.85      -3.86       -29.29      
S           112.44      -3.96       -30.26      
H           114.72      -5.52       -27.85      
H           115.9       -3.54       -29.19      
C           114.2       -4.88       -28.59      
C           112.99      -5.18       -29.04      
C           114.11      -0.02       -32.49      
C           115.34      -0.17       -31.85      
S           113.01      -1.25       -31.86      
H           116.33      -1.7        -30.57      
H           116.2       0.47        -32.1       
C           115.44      -1.32       -31.0       
C           114.26      -1.95       -30.86      
C           112.47      3.14        -34.08      
C           113.68      3.04        -34.7       
S           112.15      1.81        -33.13      
H           115.4       1.7         -34.54      
H           114.03      3.73        -35.38      
C           114.42      1.89        -34.24      
C           113.68      1.08        -33.38      
C           108.42      8.47        -34.08      
C           108.25      7.05        -34.07      
C           109.71      8.91        -34.14      
C           109.38      6.19        -34.13      
C           110.72      6.65        -34.11      
C           109.16      4.81        -34.08      
C           110.82      8.08        -34.06      
C           112.13      8.73        -34.0       
N           113.18      7.8         -33.84      
C           113.15      6.39        -33.79      
C           107.88      4.09        -34.04      
N           106.79      4.98        -33.91      
C           106.94      6.42        -33.92      
O           107.77      2.87        -34.07      
O           105.95      7.17        -33.81      
O           112.21      9.94        -34.03      
O           114.26      5.77        -33.85      
C           114.41      8.31        -33.22      
C           105.52      4.43        -33.34      
H           115.03      7.52        -32.83      
H           114.11      8.95        -32.37      
H           115.02764   8.87795     -33.91574   
H           105.15      5.16        -32.67      
H           105.79      3.55        -32.73      
H           104.8033    4.13615     -34.10687   
H           109.91      10.03       -34.29      
H           110.09      2.96        -34.08      
C           110.29      3.97        -34.14      
C           111.83      5.75        -33.99      
C           111.64      4.39        -34.11      
C           105.83      11.49       -34.06      
C           105.68      10.77       -35.2       
S           107.16      10.8        -33.18      
H           106.44      8.94        -36.22      
H           104.96      11.03       -35.95      
C           106.49      9.66        -35.4       
C           107.38      9.52        -34.35      
C           104.38      14.74       -32.26      
C           104.09      14.8        -33.62      
S           105.3       13.25       -32.02      
H           104.28      13.58       -35.42      
H           103.59      15.69       -34.09      
C           104.46      13.62       -34.38      
C           105.23      12.75       -33.67      
H           76.09       3.28        -0.48       
H           104.1       15.46       -31.52      
