712

C           -128.03321  0.11481     -0.00049    
C           -128.46607  1.44213     -0.00399    
S           -129.36231  -1.04038    0.0025      
C           -131.9185   0.48472     -0.00151    
C           -132.07979  1.98526     -0.00573    
N           -130.79981  2.53488     -0.00692    
C           -129.86371  1.50261     -0.00422    
C           -130.51468  0.26412     -0.00099    
C           -133.00053  -0.36781    0.00092     
C           -132.8385   -1.86852    0.00514     
N           -134.11819  -2.41857    0.00662     
C           -135.05422  -1.38551    0.00379     
C           -134.40468  -0.14833    0.00036     
O           -133.12173  2.62908     -0.0071     
O           -131.7964   -2.51253    0.00682     
C           -130.52565  3.95634     -0.0105     
C           -134.39081  -3.83982    0.01047     
H           -133.88956  -3.93335    0.97385     
H           -134.89206  -3.74628    -0.95291    
C           -134.67883  -5.34144    0.01454     
H           -131.02754  4.05071     -0.97347    
H           -130.02376  3.86196     0.95246     
C           -130.23608  5.45766     -0.01428    
H           -127.78799  2.28606     -0.00616    
H           -137.13223  -2.16841    0.00597     
S           -135.56073  1.15487     -0.00324    
C           -136.45433  -1.32448    0.00363     
C           -136.88654  0.0         0.0         
C           -124.48329  0.0         0.0         
C           -124.68336  -1.36883    0.00357     
O           -125.70076  0.63053     -0.00171    
H           -123.91091  -2.12479    0.0056      
H           -126.59433  -2.53149    0.00651     
C           -126.07928  -1.58085    0.00405     
C           -126.67729  -0.3338     0.00075     
C           -129.94653  6.95899     -0.01806    
C           -129.65697  8.46031     -0.02185    
C           -129.36742  9.96164     -0.02563    
C           -129.07785  11.46296    -0.02941    
C           -128.78828  12.96429    -0.0332     
C           -128.49873  14.46562    -0.03698    
C           -128.20916  15.96694    -0.04076    
C           -127.91961  17.46827    -0.04454    
C           -127.63005  18.9696     -0.04833    
C           -127.34049  20.47093    -0.0521     
C           -130.94012  5.59004     -1.36508    
C           -131.64414  5.72242     -2.71588    
C           -132.34816  5.85481     -4.06668    
C           -133.05219  5.98718     -5.41749    
C           -133.75621  6.11957     -6.76829    
C           -134.46024  6.25195     -8.11909    
C           -135.16427  6.38433     -9.46989    
C           -135.86829  6.51672     -10.8207    
C           -134.96686  -6.84306    0.01861     
C           -135.25489  -8.34468    0.02267     
C           -135.54292  -9.8463     0.02674     
C           -135.83094  -11.34792   0.03081     
C           -136.11897  -12.84954   0.03488     
C           -136.407    -14.35116   0.03895     
C           -136.69503  -15.85278   0.04302     
C           -136.98305  -17.3544    0.04708     
C           -137.27108  -18.85602   0.05115     
C           -137.55911  -20.35764   0.05522     
C           -133.9757   -5.47265    1.36592     
C           -133.27257  -5.60385    2.7173      
C           -132.56944  -5.73506    4.06868     
C           -131.86631  -5.86627    5.42007     
C           -131.16318  -5.99747    6.77145     
C           -130.46005  -6.12868    8.12283     
C           -129.75692  -6.25989    9.47421     
C           -129.05379  -6.39109    10.8256     
C           -114.20173  0.11481     0.00041     
C           -114.6346   1.44211     0.0073      
S           -115.53083  -1.04037    -0.00564    
C           -118.08702  0.48472     0.00228     
C           -118.24832  1.98524     0.00981     
N           -116.96833  2.53485     0.01292     
C           -116.03224  1.5026      0.00754     
C           -116.6832   0.26412     0.00108     
C           -119.16906  -0.3678     -0.00196    
C           -119.00703  -1.8685     -0.00949    
N           -120.28672  -2.41855    -0.01231    
C           -121.22274  -1.38549    -0.00705    
C           -120.57321  -0.14833    -0.0008     
O           -119.29026  2.62905     0.01347     
O           -117.96492  -2.5125     -0.01284    
C           -116.69418  3.9563      0.02046     
C           -120.55933  -3.83978    -0.01958    
H           -120.05808  -3.94085    0.94304     
H           -121.06058  -3.73871    -0.9822     
C           -120.84736  -5.34139    -0.02727    
H           -117.19607  4.0582      -0.94173    
H           -116.19229  3.85439     0.98266     
C           -116.40461  5.45761     0.02843     
H           -113.95652  2.28604     0.01173     
H           -123.30075  -2.16839    -0.011      
S           -121.72926  1.15486     0.0058      
C           -122.62285  -1.32446    -0.00674    
C           -123.05506  0.0         0.0         
C           -110.65181  0.0         0.0         
C           -110.85188  -1.36882    -0.00715    
O           -111.86928  0.63052     0.00322     
H           -110.07943  -2.12476    -0.01103    
H           -112.76285  -2.53147    -0.0133     
C           -112.24781  -1.58083    -0.00832    
C           -112.84582  -0.33379    -0.00186    
C           -116.11505  6.95892     0.0364      
C           -115.82549  8.46022     0.04436     
C           -115.53594  9.96153     0.05233     
C           -115.24637  11.46284    0.0603      
C           -114.95681  12.96415    0.06827     
C           -114.66725  14.46546    0.07623     
C           -114.37769  15.96677    0.08421     
C           -114.08813  17.46809    0.09217     
C           -113.79857  18.9694     0.10014     
C           -113.50901  20.47071    0.10811     
C           -117.10864  5.60055     -1.32129    
C           -117.81266  5.7435      -2.67102    
C           -118.51669  5.88645     -4.02074    
C           -119.22071  6.0294      -5.37047    
C           -119.92474  6.17236     -6.72019    
C           -120.62876  6.3153      -8.06992    
C           -121.33279  6.45825     -9.41964    
C           -122.03681  6.6012      -10.76937   
C           -121.13538  -6.843      -0.03495    
C           -121.42341  -8.3446     -0.04263    
C           -121.71144  -9.84621    -0.05032    
C           -121.99947  -11.34781   -0.058      
C           -122.28749  -12.84942   -0.06569    
C           -122.57552  -14.35103   -0.07337    
C           -122.86355  -15.85263   -0.08105    
C           -123.15158  -17.35424   -0.08874    
C           -123.4396   -18.85585   -0.09642    
C           -123.72763  -20.35745   -0.1041     
C           -120.14423  -5.48317    1.32305     
C           -119.4411   -5.62495    2.67336     
C           -118.73797  -5.76673    4.02368     
C           -118.03484  -5.9085     5.37399     
C           -117.33171  -6.05028    6.7243      
C           -116.62858  -6.19206    8.07462     
C           -115.92545  -6.33384    9.42493     
C           -115.22232  -6.47562    10.77525    
C           -100.37025  0.11481     0.00041     
C           -100.80312  1.44211     0.0073      
S           -101.69935  -1.04037    -0.00564    
C           -104.25555  0.48472     0.00228     
C           -104.41684  1.98524     0.00981     
N           -103.13686  2.53485     0.01292     
C           -102.20076  1.5026      0.00754     
C           -102.85173  0.26412     0.00108     
C           -105.33758  -0.3678     -0.00196    
C           -105.17555  -1.8685     -0.00949    
N           -106.45524  -2.41855    -0.01231    
C           -107.39126  -1.38549    -0.00705    
C           -106.74173  -0.14833    -0.0008     
O           -105.45878  2.62905     0.01347     
O           -104.13344  -2.5125     -0.01284    
C           -102.8627   3.9563      0.02046     
C           -106.72785  -3.83978    -0.01958    
H           -106.2266   -3.94085    0.94304     
H           -107.2291   -3.73871    -0.9822     
C           -107.01588  -5.34139    -0.02727    
H           -103.36459  4.0582      -0.94173    
H           -102.36081  3.85439     0.98266     
C           -102.57313  5.45761     0.02843     
H           -100.12504  2.28604     0.01173     
H           -109.46928  -2.16839    -0.011      
S           -107.89778  1.15486     0.0058      
C           -108.79138  -1.32446    -0.00674    
C           -109.22358  0.0         0.0         
C           -96.82034   0.0         0.0         
C           -97.02041   -1.36882    -0.00715    
O           -98.0378    0.63052     0.00322     
H           -96.24796   -2.12476    -0.01103    
H           -98.93138   -2.53147    -0.0133     
C           -98.41633   -1.58083    -0.00832    
C           -99.01434   -0.33379    -0.00186    
C           -102.28358  6.95892     0.0364      
C           -101.99402  8.46022     0.04436     
C           -101.70446  9.96153     0.05233     
C           -101.41489  11.46284    0.0603      
C           -101.12533  12.96415    0.06827     
C           -100.83578  14.46546    0.07623     
C           -100.54621  15.96677    0.08421     
C           -100.25666  17.46809    0.09217     
C           -99.96709   18.9694     0.10014     
C           -99.67753   20.47071    0.10811     
C           -103.27716  5.60055     -1.32129    
C           -103.98118  5.7435      -2.67102    
C           -104.68521  5.88645     -4.02074    
C           -105.38923  6.0294      -5.37047    
C           -106.09326  6.17236     -6.72019    
C           -106.79728  6.3153      -8.06992    
C           -107.50131  6.45825     -9.41964    
C           -108.20533  6.6012      -10.76937   
C           -107.30391  -6.843      -0.03495    
C           -107.59193  -8.3446     -0.04263    
C           -107.87996  -9.84621    -0.05032    
C           -108.16799  -11.34781   -0.058      
C           -108.45602  -12.84942   -0.06569    
C           -108.74405  -14.35103   -0.07337    
C           -109.03207  -15.85263   -0.08105    
C           -109.3201   -17.35424   -0.08874    
C           -109.60813  -18.85585   -0.09642    
C           -109.89616  -20.35745   -0.1041     
C           -106.31275  -5.48317    1.32305     
C           -105.60962  -5.62495    2.67336     
C           -104.90649  -5.76673    4.02368     
C           -104.20336  -5.9085     5.37399     
C           -103.50023  -6.05028    6.7243      
C           -102.7971   -6.19206    8.07462     
C           -102.09397  -6.33384    9.42493     
C           -101.39084  -6.47562    10.77525    
C           -86.53878   0.11481     0.00041     
C           -86.97164   1.44211     0.0073      
S           -87.86788   -1.04037    -0.00564    
C           -90.42407   0.48472     0.00228     
C           -90.58536   1.98524     0.00981     
N           -89.30538   2.53485     0.01292     
C           -88.36929   1.5026      0.00754     
C           -89.02025   0.26412     0.00108     
C           -91.50611   -0.3678     -0.00196    
C           -91.34407   -1.8685     -0.00949    
N           -92.62376   -2.41855    -0.01231    
C           -93.55979   -1.38549    -0.00705    
C           -92.91025   -0.14833    -0.0008     
O           -91.6273    2.62905     0.01347     
O           -90.30197   -2.5125     -0.01284    
C           -89.03122   3.9563      0.02046     
C           -92.89638   -3.83978    -0.01958    
H           -92.39513   -3.94085    0.94304     
H           -93.39763   -3.73871    -0.9822     
C           -93.1844    -5.34139    -0.02727    
H           -89.53311   4.0582      -0.94173    
H           -88.52933   3.85439     0.98266     
C           -88.74166   5.45761     0.02843     
H           -86.29356   2.28604     0.01173     
H           -95.6378    -2.16839    -0.011      
S           -94.0663    1.15486     0.0058      
C           -94.9599    -1.32446    -0.00674    
C           -95.39211   0.0         0.0         
C           -82.98886   0.0         0.0         
C           -83.18893   -1.36882    -0.00715    
O           -84.20633   0.63052     0.00322     
H           -82.41648   -2.12476    -0.01103    
H           -85.0999    -2.53147    -0.0133     
C           -84.58485   -1.58083    -0.00832    
C           -85.18286   -0.33379    -0.00186    
C           -88.4521    6.95892     0.0364      
C           -88.16254   8.46022     0.04436     
C           -87.87299   9.96153     0.05233     
C           -87.58342   11.46284    0.0603      
C           -87.29385   12.96415    0.06827     
C           -87.0043    14.46546    0.07623     
C           -86.71473   15.96677    0.08421     
C           -86.42518   17.46809    0.09217     
C           -86.13562   18.9694     0.10014     
C           -85.84606   20.47071    0.10811     
C           -89.44569   5.60055     -1.32129    
C           -90.14971   5.7435      -2.67102    
C           -90.85373   5.88645     -4.02074    
C           -91.55776   6.0294      -5.37047    
C           -92.26178   6.17236     -6.72019    
C           -92.96581   6.3153      -8.06992    
C           -93.66984   6.45825     -9.41964    
C           -94.37386   6.6012      -10.76937   
C           -93.47243   -6.843      -0.03495    
C           -93.76046   -8.3446     -0.04263    
C           -94.04849   -9.84621    -0.05032    
C           -94.33651   -11.34781   -0.058      
C           -94.62454   -12.84942   -0.06569    
C           -94.91257   -14.35103   -0.07337    
C           -95.2006    -15.85263   -0.08105    
C           -95.48862   -17.35424   -0.08874    
C           -95.77665   -18.85585   -0.09642    
C           -96.06468   -20.35745   -0.1041     
C           -92.48127   -5.48317    1.32305     
C           -91.77814   -5.62495    2.67336     
C           -91.07501   -5.76673    4.02368     
C           -90.37188   -5.9085     5.37399     
C           -89.66875   -6.05028    6.7243      
C           -88.96562   -6.19206    8.07462     
C           -88.26249   -6.33384    9.42493     
C           -87.55936   -6.47562    10.77525    
C           -72.7073    0.11481     0.00041     
C           -73.14017   1.44211     0.0073      
S           -74.0364    -1.04037    -0.00564    
C           -76.59259   0.48472     0.00228     
C           -76.75389   1.98524     0.00981     
N           -75.4739    2.53485     0.01292     
C           -74.53781   1.5026      0.00754     
C           -75.18877   0.26412     0.00108     
C           -77.67463   -0.3678     -0.00196    
C           -77.5126    -1.8685     -0.00949    
N           -78.79229   -2.41855    -0.01231    
C           -79.72831   -1.38549    -0.00705    
C           -79.07878   -0.14833    -0.0008     
O           -77.79583   2.62905     0.01347     
O           -76.47049   -2.5125     -0.01284    
C           -75.19975   3.9563      0.02046     
C           -79.0649    -3.83978    -0.01958    
H           -78.56365   -3.94085    0.94304     
H           -79.56615   -3.73871    -0.9822     
C           -79.35293   -5.34139    -0.02727    
H           -75.70164   4.0582      -0.94173    
H           -74.69786   3.85439     0.98266     
C           -74.91018   5.45761     0.02843     
H           -72.46209   2.28604     0.01173     
H           -81.80632   -2.16839    -0.011      
S           -80.23483   1.15486     0.0058      
C           -81.12842   -1.32446    -0.00674    
C           -81.56063   0.0         0.0         
C           -69.15738   0.0         0.0         
C           -69.35745   -1.36882    -0.00715    
O           -70.37485   0.63052     0.00322     
H           -68.585     -2.12476    -0.01103    
H           -71.26842   -2.53147    -0.0133     
C           -70.75338   -1.58083    -0.00832    
C           -71.35139   -0.33379    -0.00186    
C           -74.62062   6.95892     0.0364      
C           -74.33106   8.46022     0.04436     
C           -74.04151   9.96153     0.05233     
C           -73.75194   11.46284    0.0603      
C           -73.46238   12.96415    0.06827     
C           -73.17282   14.46546    0.07623     
C           -72.88326   15.96677    0.08421     
C           -72.5937    17.46809    0.09217     
C           -72.30414   18.9694     0.10014     
C           -72.01458   20.47071    0.10811     
C           -75.61421   5.60055     -1.32129    
C           -76.31823   5.7435      -2.67102    
C           -77.02226   5.88645     -4.02074    
C           -77.72628   6.0294      -5.37047    
C           -78.43031   6.17236     -6.72019    
C           -79.13433   6.3153      -8.06992    
C           -79.83836   6.45825     -9.41964    
C           -80.54238   6.6012      -10.76937   
C           -79.64095   -6.843      -0.03495    
C           -79.92898   -8.3446     -0.04263    
C           -80.21701   -9.84621    -0.05032    
C           -80.50504   -11.34781   -0.058      
C           -80.79306   -12.84942   -0.06569    
C           -81.08109   -14.35103   -0.07337    
C           -81.36912   -15.85263   -0.08105    
C           -81.65715   -17.35424   -0.08874    
C           -81.94518   -18.85585   -0.09642    
C           -82.2332    -20.35745   -0.1041     
C           -78.6498    -5.48317    1.32305     
C           -77.94667   -5.62495    2.67336     
C           -77.24354   -5.76673    4.02368     
C           -76.54041   -5.9085     5.37399     
C           -75.83728   -6.05028    6.7243      
C           -75.13415   -6.19206    8.07462     
C           -74.43102   -6.33384    9.42493     
C           -73.72789   -6.47562    10.77525    
C           -58.87582   0.11481     0.00041     
C           -59.30869   1.44211     0.0073      
S           -60.20492   -1.04037    -0.00564    
C           -62.76112   0.48472     0.00228     
C           -62.92241   1.98524     0.00981     
N           -61.64243   2.53485     0.01292     
C           -60.70633   1.5026      0.00754     
C           -61.3573    0.26412     0.00108     
C           -63.84315   -0.3678     -0.00196    
C           -63.68112   -1.8685     -0.00949    
N           -64.96081   -2.41855    -0.01231    
C           -65.89683   -1.38549    -0.00705    
C           -65.2473    -0.14833    -0.0008     
O           -63.96435   2.62905     0.01347     
O           -62.63901   -2.5125     -0.01284    
C           -61.36827   3.9563      0.02046     
C           -65.23342   -3.83978    -0.01958    
H           -64.73217   -3.94085    0.94304     
H           -65.73467   -3.73871    -0.9822     
C           -65.52145   -5.34139    -0.02727    
H           -61.87016   4.0582      -0.94173    
H           -60.86638   3.85439     0.98266     
C           -61.0787    5.45761     0.02843     
H           -58.63061   2.28604     0.01173     
H           -67.97485   -2.16839    -0.011      
S           -66.40335   1.15486     0.0058      
C           -67.29695   -1.32446    -0.00674    
C           -67.72915   0.0         0.0         
C           -55.32591   0.0         0.0         
C           -55.52598   -1.36882    -0.00715    
O           -56.54337   0.63052     0.00322     
H           -54.75353   -2.12476    -0.01103    
H           -57.43695   -2.53147    -0.0133     
C           -56.9219    -1.58083    -0.00832    
C           -57.51991   -0.33379    -0.00186    
C           -60.78915   6.95892     0.0364      
C           -60.49959   8.46022     0.04436     
C           -60.21003   9.96153     0.05233     
C           -59.92046   11.46284    0.0603      
C           -59.6309    12.96415    0.06827     
C           -59.34135   14.46546    0.07623     
C           -59.05178   15.96677    0.08421     
C           -58.76223   17.46809    0.09217     
C           -58.47266   18.9694     0.10014     
C           -58.1831    20.47071    0.10811     
C           -61.78273   5.60055     -1.32129    
C           -62.48675   5.7435      -2.67102    
C           -63.19078   5.88645     -4.02074    
C           -63.8948    6.0294      -5.37047    
C           -64.59883   6.17236     -6.72019    
C           -65.30285   6.3153      -8.06992    
C           -66.00688   6.45825     -9.41964    
C           -66.7109    6.6012      -10.76937   
C           -65.80948   -6.843      -0.03495    
C           -66.09751   -8.3446     -0.04263    
C           -66.38553   -9.84621    -0.05032    
C           -66.67356   -11.34781   -0.058      
C           -66.96159   -12.84942   -0.06569    
C           -67.24962   -14.35103   -0.07337    
C           -67.53764   -15.85263   -0.08105    
C           -67.82567   -17.35424   -0.08874    
C           -68.1137    -18.85585   -0.09642    
C           -68.40173   -20.35745   -0.1041     
C           -64.81832   -5.48317    1.32305     
C           -64.11519   -5.62495    2.67336     
C           -63.41206   -5.76673    4.02368     
C           -62.70893   -5.9085     5.37399     
C           -62.0058    -6.05028    6.7243      
C           -61.30267   -6.19206    8.07462     
C           -60.59954   -6.33384    9.42493     
C           -59.89641   -6.47562    10.77525    
C           -45.04435   0.11481     0.00041     
C           -45.47721   1.44211     0.0073      
S           -46.37345   -1.04037    -0.00564    
C           -48.92964   0.48472     0.00228     
C           -49.09093   1.98524     0.00981     
N           -47.81095   2.53485     0.01292     
C           -46.87486   1.5026      0.00754     
C           -47.52582   0.26412     0.00108     
C           -50.01168   -0.3678     -0.00196    
C           -49.84964   -1.8685     -0.00949    
N           -51.12933   -2.41855    -0.01231    
C           -52.06536   -1.38549    -0.00705    
C           -51.41582   -0.14833    -0.0008     
O           -50.13287   2.62905     0.01347     
O           -48.80754   -2.5125     -0.01284    
C           -47.53679   3.9563      0.02046     
C           -51.40195   -3.83978    -0.01958    
H           -50.9007    -3.94085    0.94304     
H           -51.9032    -3.73871    -0.9822     
C           -51.68997   -5.34139    -0.02727    
H           -48.03868   4.0582      -0.94173    
H           -47.0349    3.85439     0.98266     
C           -47.24723   5.45761     0.02843     
H           -44.79913   2.28604     0.01173     
H           -54.14337   -2.16839    -0.011      
S           -52.57187   1.15486     0.0058      
C           -53.46547   -1.32446    -0.00674    
C           -53.89768   0.0         0.0         
C           -41.49443   0.0         0.0         
C           -41.6945    -1.36882    -0.00715    
O           -42.7119    0.63052     0.00322     
H           -40.92205   -2.12476    -0.01103    
H           -43.60547   -2.53147    -0.0133     
C           -43.09042   -1.58083    -0.00832    
C           -43.68843   -0.33379    -0.00186    
C           -46.95767   6.95892     0.0364      
C           -46.66811   8.46022     0.04436     
C           -46.37856   9.96153     0.05233     
C           -46.08899   11.46284    0.0603      
C           -45.79943   12.96415    0.06827     
C           -45.50987   14.46546    0.07623     
C           -45.2203    15.96677    0.08421     
C           -44.93075   17.46809    0.09217     
C           -44.64119   18.9694     0.10014     
C           -44.35163   20.47071    0.10811     
C           -47.95126   5.60055     -1.32129    
C           -48.65528   5.7435      -2.67102    
C           -49.35931   5.88645     -4.02074    
C           -50.06333   6.0294      -5.37047    
C           -50.76735   6.17236     -6.72019    
C           -51.47138   6.3153      -8.06992    
C           -52.17541   6.45825     -9.41964    
C           -52.87943   6.6012      -10.76937   
C           -51.978     -6.843      -0.03495    
C           -52.26603   -8.3446     -0.04263    
C           -52.55406   -9.84621    -0.05032    
C           -52.84208   -11.34781   -0.058      
C           -53.13011   -12.84942   -0.06569    
C           -53.41814   -14.35103   -0.07337    
C           -53.70617   -15.85263   -0.08105    
C           -53.99419   -17.35424   -0.08874    
C           -54.28222   -18.85585   -0.09642    
C           -54.57025   -20.35745   -0.1041     
C           -50.98684   -5.48317    1.32305     
C           -50.28371   -5.62495    2.67336     
C           -49.58058   -5.76673    4.02368     
C           -48.87745   -5.9085     5.37399     
C           -48.17432   -6.05028    6.7243      
C           -47.47119   -6.19206    8.07462     
C           -46.76806   -6.33384    9.42493     
C           -46.06493   -6.47562    10.77525    
C           -31.21287   0.11481     0.00041     
C           -31.64574   1.44211     0.0073      
S           -32.54197   -1.04037    -0.00564    
C           -35.09817   0.48472     0.00228     
C           -35.25946   1.98524     0.00981     
N           -33.97947   2.53485     0.01292     
C           -33.04338   1.5026      0.00754     
C           -33.69434   0.26412     0.00108     
C           -36.1802    -0.3678     -0.00196    
C           -36.01817   -1.8685     -0.00949    
N           -37.29786   -2.41855    -0.01231    
C           -38.23388   -1.38549    -0.00705    
C           -37.58435   -0.14833    -0.0008     
O           -36.3014    2.62905     0.01347     
O           -34.97606   -2.5125     -0.01284    
C           -33.70532   3.9563      0.02046     
C           -37.57047   -3.83978    -0.01958    
H           -37.06922   -3.94085    0.94304     
H           -38.07172   -3.73871    -0.9822     
C           -37.8585    -5.34139    -0.02727    
H           -34.20721   4.0582      -0.94173    
H           -33.20343   3.85439     0.98266     
C           -33.41575   5.45761     0.02843     
H           -30.96766   2.28604     0.01173     
H           -40.31189   -2.16839    -0.011      
S           -38.7404    1.15486     0.0058      
C           -39.63399   -1.32446    -0.00674    
C           -40.0662    0.0         0.0         
C           -27.66295   0.0         0.0         
C           -27.86302   -1.36882    -0.00715    
O           -28.88042   0.63052     0.00322     
H           -27.09057   -2.12476    -0.01103    
H           -29.77399   -2.53147    -0.0133     
C           -29.25895   -1.58083    -0.00832    
C           -29.85696   -0.33379    -0.00186    
C           -33.12619   6.95892     0.0364      
C           -32.83663   8.46022     0.04436     
C           -32.54708   9.96153     0.05233     
C           -32.25751   11.46284    0.0603      
C           -31.96795   12.96415    0.06827     
C           -31.67839   14.46546    0.07623     
C           -31.38883   15.96677    0.08421     
C           -31.09927   17.46809    0.09217     
C           -30.80971   18.9694     0.10014     
C           -30.52015   20.47071    0.10811     
C           -34.11978   5.60055     -1.32129    
C           -34.8238    5.7435      -2.67102    
C           -35.52783   5.88645     -4.02074    
C           -36.23185   6.0294      -5.37047    
C           -36.93588   6.17236     -6.72019    
C           -37.6399    6.3153      -8.06992    
C           -38.34393   6.45825     -9.41964    
C           -39.04795   6.6012      -10.76937   
C           -38.14652   -6.843      -0.03495    
C           -38.43455   -8.3446     -0.04263    
C           -38.72258   -9.84621    -0.05032    
C           -39.01061   -11.34781   -0.058      
C           -39.29863   -12.84942   -0.06569    
C           -39.58666   -14.35103   -0.07337    
C           -39.87469   -15.85263   -0.08105    
C           -40.16272   -17.35424   -0.08874    
C           -40.45075   -18.85585   -0.09642    
C           -40.73877   -20.35745   -0.1041     
C           -37.15537   -5.48317    1.32305     
C           -36.45224   -5.62495    2.67336     
C           -35.74911   -5.76673    4.02368     
C           -35.04598   -5.9085     5.37399     
C           -34.34285   -6.05028    6.7243      
C           -33.63972   -6.19206    8.07462     
C           -32.93659   -6.33384    9.42493     
C           -32.23346   -6.47562    10.77525    
C           -17.38139   0.11481     0.00041     
C           -17.81426   1.44211     0.0073      
S           -18.71049   -1.04037    -0.00564    
C           -21.26669   0.48472     0.00228     
C           -21.42798   1.98524     0.00981     
N           -20.148     2.53485     0.01292     
C           -19.2119    1.5026      0.00754     
C           -19.86287   0.26412     0.00108     
C           -22.34872   -0.3678     -0.00196    
C           -22.18669   -1.8685     -0.00949    
N           -23.46638   -2.41855    -0.01231    
C           -24.4024    -1.38549    -0.00705    
C           -23.75287   -0.14833    -0.0008     
O           -22.46992   2.62905     0.01347     
O           -21.14458   -2.5125     -0.01284    
C           -19.87384   3.9563      0.02046     
C           -23.73899   -3.83978    -0.01958    
H           -23.23774   -3.94085    0.94304     
H           -24.24024   -3.73871    -0.9822     
C           -24.02702   -5.34139    -0.02727    
H           -20.37573   4.0582      -0.94173    
H           -19.37195   3.85439     0.98266     
C           -19.58427   5.45761     0.02843     
H           -17.13618   2.28604     0.01173     
H           -26.48042   -2.16839    -0.011      
S           -24.90892   1.15486     0.0058      
C           -25.80252   -1.32446    -0.00674    
C           -26.23472   0.0         0.0         
C           -13.83148   0.0         0.0         
C           -14.03155   -1.36882    -0.00715    
O           -15.04894   0.63052     0.00322     
H           -13.2591    -2.12476    -0.01103    
H           -15.94252   -2.53147    -0.0133     
C           -15.42747   -1.58083    -0.00832    
C           -16.02548   -0.33379    -0.00186    
C           -19.29472   6.95892     0.0364      
C           -19.00516   8.46022     0.04436     
C           -18.7156    9.96153     0.05233     
C           -18.42603   11.46284    0.0603      
C           -18.13647   12.96415    0.06827     
C           -17.84692   14.46546    0.07623     
C           -17.55735   15.96677    0.08421     
C           -17.2678    17.46809    0.09217     
C           -16.97823   18.9694     0.10014     
C           -16.68867   20.47071    0.10811     
C           -20.2883    5.60055     -1.32129    
C           -20.99232   5.7435      -2.67102    
C           -21.69635   5.88645     -4.02074    
C           -22.40037   6.0294      -5.37047    
C           -23.1044    6.17236     -6.72019    
C           -23.80842   6.3153      -8.06992    
C           -24.51245   6.45825     -9.41964    
C           -25.21647   6.6012      -10.76937   
C           -24.31505   -6.843      -0.03495    
C           -24.60308   -8.3446     -0.04263    
C           -24.8911    -9.84621    -0.05032    
C           -25.17913   -11.34781   -0.058      
C           -25.46716   -12.84942   -0.06569    
C           -25.75519   -14.35103   -0.07337    
C           -26.04321   -15.85263   -0.08105    
C           -26.33124   -17.35424   -0.08874    
C           -26.61927   -18.85585   -0.09642    
C           -26.9073    -20.35745   -0.1041     
C           -23.32389   -5.48317    1.32305     
C           -22.62076   -5.62495    2.67336     
C           -21.91763   -5.76673    4.02368     
C           -21.2145    -5.9085     5.37399     
C           -20.51137   -6.05028    6.7243      
C           -19.80824   -6.19206    8.07462     
C           -19.10511   -6.33384    9.42493     
C           -18.40198   -6.47562    10.77525    
C           -3.54992    0.11481     0.00041     
C           -3.98278    1.44211     0.0073      
S           -4.87902    -1.04037    -0.00564    
C           -7.43521    0.48472     0.00228     
C           -7.5965     1.98524     0.00981     
N           -6.31652    2.53485     0.01292     
C           -5.38043    1.5026      0.00754     
C           -6.03139    0.26412     0.00108     
C           -8.51725    -0.3678     -0.00196    
C           -8.35521    -1.8685     -0.00949    
N           -9.63491    -2.41855    -0.01231    
C           -10.57093   -1.38549    -0.00705    
C           -9.92139    -0.14833    -0.0008     
O           -8.63844    2.62905     0.01347     
O           -7.31311    -2.5125     -0.01284    
C           -6.04236    3.9563      0.02046     
C           -9.90752    -3.83978    -0.01958    
H           -9.40627    -3.94085    0.94304     
H           -10.40877   -3.73871    -0.9822     
C           -10.19554   -5.34139    -0.02727    
H           -6.54425    4.0582      -0.94173    
H           -5.54047    3.85439     0.98266     
C           -5.7528     5.45761     0.02843     
H           -3.3047     2.28604     0.01173     
H           -12.64894   -2.16839    -0.011      
S           -11.07744   1.15486     0.0058      
C           -11.97104   -1.32446    -0.00674    
C           -12.40325   0.0         0.0         
C           0.0         0.0         0.0         
C           -0.20007    -1.36882    -0.00715    
O           -1.21747    0.63052     0.00322     
H           0.57238     -2.12476    -0.01103    
H           -2.11104    -2.53147    -0.0133     
C           -1.59599    -1.58083    -0.00832    
C           -2.194      -0.33379    -0.00186    
C           -5.46324    6.95892     0.0364      
C           -5.17368    8.46022     0.04436     
C           -4.88413    9.96153     0.05233     
C           -4.59456    11.46284    0.0603      
C           -4.305      12.96415    0.06827     
C           -4.01544    14.46546    0.07623     
C           -3.72587    15.96677    0.08421     
C           -3.43632    17.46809    0.09217     
C           -3.14676    18.9694     0.10014     
C           -2.8572     20.47071    0.10811     
C           -6.45683    5.60055     -1.32129    
C           -7.16085    5.7435      -2.67102    
C           -7.86488    5.88645     -4.02074    
C           -8.5689     6.0294      -5.37047    
C           -9.27292    6.17236     -6.72019    
C           -9.97695    6.3153      -8.06992    
C           -10.68098   6.45825     -9.41964    
C           -11.385     6.6012      -10.76937   
C           -10.48357   -6.843      -0.03495    
C           -10.7716    -8.3446     -0.04263    
C           -11.05963   -9.84621    -0.05032    
C           -11.34765   -11.34781   -0.058      
C           -11.63568   -12.84942   -0.06569    
C           -11.92371   -14.35103   -0.07337    
C           -12.21174   -15.85263   -0.08105    
C           -12.49976   -17.35424   -0.08874    
C           -12.78779   -18.85585   -0.09642    
C           -13.07582   -20.35745   -0.1041     
C           -9.49241    -5.48317    1.32305     
C           -8.78928    -5.62495    2.67336     
C           -8.08615    -5.76673    4.02368     
C           -7.38302    -5.9085     5.37399     
C           -6.67989    -6.05028    6.7243      
C           -5.97676    -6.19206    8.07462     
C           -5.27363    -6.33384    9.42493     
C           -4.5705     -6.47562    10.77525    
H           -137.97654  0.0         0.0         
H           1.09        0.0         0.0         
