119

C           -4.4582     0.28371     -0.00109    
C           -5.23966    1.41667     -0.0055     
S           -5.47061    -1.18499    0.00463     
C           -11.34807   1.30846     -0.00507    
C           -10.72684   0.0388      -0.00012    
C           -11.48752   -1.13809    0.00445     
C           -12.87215   -1.02603    0.00401     
C           -13.49317   0.24353     -0.00093    
C           -12.73257   1.42046     -0.00552    
C           -13.9138    -2.1449     0.00837     
C           -15.21592   -1.34315    0.00523     
C           -14.94408   0.05417     -0.00019    
C           -10.3065    2.42732     -0.00943    
C           -9.00439    1.6256      -0.00631    
C           -9.27605    0.2284      -0.00087    
C           -16.51298   -1.81196    0.00706     
C           -17.57595   -0.87888    0.00343     
C           -17.28383   0.51034     -0.00199    
C           -15.97198   0.99299     -0.00386    
C           -7.70743    2.09479     -0.00814    
C           -6.64394    1.16218     -0.00451    
C           -6.9361     -0.22743    0.0009      
C           -8.24754    -0.71019    0.00279     
C           -13.79432   -3.01917    1.27705     
C           -13.79431   -3.02902    -1.25346    
C           -10.42607   3.31143     1.2524      
C           -10.42607   3.30158     -1.27811    
H           -13.21663   2.39454     -0.00931    
H           -11.00347   -2.11216    0.00825     
H           -7.48785    3.15994     -0.01228    
H           -8.45317    -1.77699    0.00695     
H           -16.73293   -2.87704    0.01121     
H           -15.76607   2.05972     -0.00801    
H           -13.53145   -3.87848    0.66012     
H           -14.05719   -2.15987    1.89397     
C           -13.67611   -3.88418    2.53229     
H           -13.96755   -2.15547    -1.88194    
H           -13.62108   -3.90258    -0.62499    
C           -13.67609   -3.90379    -2.50193    
H           -10.59926   4.18001     -0.65646    
H           -10.25287   2.42314     -1.89977    
C           -10.54437   4.16657     -2.53335    
H           -10.16324   2.45695     1.876       
H           -10.68889   4.16591     0.6288      
C           -10.54437   4.18618     2.50086     
H           -19.40571   -2.1267     0.00828     
H           -4.81504    2.41069     -0.00937    
S           -18.74868   1.46821     -0.00572    
C           -18.98087   -1.13267    0.00442     
C           -19.76103   -0.0        0.0         
C           0.0         0.0         0.0         
C           -0.69113    1.26869     -0.00496    
C           -0.87188    -1.07454    0.00421     
N           -0.07534    2.44879     -0.0096     
N           -2.56804    2.64658     -0.01036    
S           -1.23645    3.60865     -0.01413    
F           -2.92753    -2.15183    0.00844     
F           -0.41889    -2.34051    0.00916     
C           -2.2876     -0.96866    0.00381     
C           -2.1477     1.38099     -0.0054     
C           -3.00415    0.21411     -0.00082    
C           -13.55789   -4.7492     3.78752     
C           -13.43968   -5.61421    5.04276     
C           -13.32147   -6.47922    6.298       
C           -13.20325   -7.34423    7.55324     
C           -13.08504   -8.20924    8.80848     
C           -12.96682   -9.07425    10.06372    
C           -12.8486    -9.93926    11.31895    
C           -12.73039   -10.80427   12.57419    
C           -12.61217   -11.66928   13.82943    
C           -12.49396   -12.53429   15.08467    
C           -12.37575   -13.3993    16.33991    
C           -12.25754   -14.26432   17.59515    
C           -12.13932   -15.12933   18.85038    
C           -12.0211    -15.99433   20.10562    
C           -10.66267   5.06092     3.74933     
C           -10.78097   5.93566     4.9978      
C           -10.89928   6.81041     6.24626     
C           -11.01758   7.68515     7.49473     
C           -11.13589   8.5599      8.74319     
C           -11.2542    9.43464     9.99165     
C           -11.3725    10.30939    11.24013    
C           -11.4908    11.18414    12.48859    
C           -11.6091    12.05888    13.73706    
C           -11.72741   12.93363    14.98552    
C           -11.84571   13.80837    16.23399    
C           -11.96402   14.68311    17.48245    
C           -12.08231   15.55786    18.73091    
C           -12.20062   16.4326     19.97938    
C           -13.55787   -4.77855    -3.75039    
C           -13.43964   -5.65331    -4.99885    
C           -13.32142   -6.52807    -6.24731    
C           -13.20319   -7.40283    -7.49577    
C           -13.08497   -8.2776     -8.74423    
C           -12.96675   -9.15236    -9.9927     
C           -12.84852   -10.02712   -11.24116   
C           -12.7303    -10.90188   -12.48962   
C           -12.61207   -11.77665   -13.73808   
C           -12.49385   -12.65141   -14.98654   
C           -12.37562   -13.52617   -16.235     
C           -12.2574    -14.40093   -17.48346   
C           -12.13918   -15.27569   -18.73192   
C           -12.02095   -16.15045   -19.98038   
C           -10.66268   5.03156     -3.7886     
C           -10.78098   5.89656     -5.04384    
C           -10.89928   6.76155     -6.29908    
C           -11.01759   7.62654     -7.55432    
C           -11.13589   8.49154     -8.80956    
C           -11.2542    9.35653     -10.06481   
C           -11.3725    10.22152    -11.32005   
C           -11.4908    11.08652    -12.57529   
C           -11.60911   11.95151    -13.83053   
C           -11.72741   12.8165     -15.08577   
C           -11.84572   13.6815     -16.34101   
C           -11.96402   14.54649    -17.59626   
C           -12.08232   15.41148    -18.8515    
C           -12.20063   16.27648    -20.10674   
H           -20.85103   -0.0        0.0         
H           1.09        0.0         0.0         
