113

C           -4.30717    0.81465     -0.22134    
C           -5.04753    1.86031     -0.74744    
S           -5.38553    -0.4667     0.38698     
C           -10.39705   -0.62286    0.38343     
C           -10.96386   0.54271     -0.19904    
C           -10.15965   1.57758     -0.69792    
C           -8.7825     1.43552     -0.6077     
C           -8.21543    0.26964     -0.02545    
C           -9.01967    -0.76512    0.47337     
C           -11.48923   -1.59788    0.84735     
C           -12.73986   -0.82791    0.45106     
C           -12.40139   0.37527     -0.13404    
C           -7.69015    2.41101     -1.07014    
C           -6.4396     1.6409      -0.67393    
C           -6.77799    0.43684     -0.09013    
C           -11.3962    -2.94673    0.09892     
C           -11.42515   -1.83181    2.37332     
C           -7.75373    2.64686     -2.59578    
C           -7.78349    3.75876     -0.31974    
H           -14.60229   -1.93306    0.92606     
H           -4.57964    2.74632     -1.15106    
H           -10.60758   2.46395     -1.14086    
H           -8.57174    -1.65133    0.91661     
H           -11.23241   -2.41527    -0.83854    
H           -11.56      -3.4782     1.03637     
C           -11.30416   -4.28128    -0.64159    
C           -11.36174   -2.06327    3.88337     
H           -11.54254   -2.90368    2.21395     
H           -11.30775   -0.75993    2.5327      
H           -7.60412    3.7148      -2.43692    
H           -7.90334    1.57893     -2.75464    
C           -7.81664    2.88026     -4.10555    
C           -7.87583    5.09222     0.42271     
H           -7.91502    3.22546     0.62174     
H           -7.65195    4.29208     -1.26121    
S           -13.79304   1.27915     -0.6118     
C           -14.13209   -1.04641    0.52538     
C           -14.87248   0.0         -0.0        
C           0.0         0.0         0.0         
C           -0.49495    1.31921     0.00198     
C           -1.00391    -1.00126    -0.07476    
C           0.23755     2.61528     0.17209     
N           -0.74226    3.60965     0.21562     
C           -2.028      3.09934     0.05116     
C           -0.45963    5.02561     0.35853     
O           -3.02158    3.80497     0.02265     
O           1.4308      2.84523     0.26255     
H           -3.04635    -1.54244    -0.23505    
H           -0.70088    -2.04274    -0.11589    
H           -0.93067    5.41861     1.2642      
H           -0.84394    5.57918     -0.50322    
H           0.6232      5.13778     0.42372     
C           -2.35096    -0.71394    -0.14348    
C           -1.87569    1.61345     -0.06994    
C           -2.86127    0.61065     -0.14667    
C           -11.29834   -2.29475    5.39342     
C           -11.23494   -2.52623    6.90347     
C           -11.17152   -2.7577     8.4135      
C           -11.10812   -2.98917    9.92355     
C           -11.04472   -3.22064    11.4336     
C           -10.98131   -3.45212    12.94365    
C           -10.9179    -3.6836     14.4537     
C           -10.8545    -3.91507    15.96374    
C           -10.79109   -4.14654    17.47379    
C           -10.72768   -4.37802    18.98383    
C           -10.66428   -4.60949    20.49388    
C           -10.60088   -4.84097    22.00392    
C           -10.53747   -5.07244    23.51397    
C           -10.47406   -5.30391    25.02402    
C           -7.96817    6.42567     1.16516     
C           -8.06051    7.75911     1.9076      
C           -8.15285    9.09257     2.65005     
C           -8.2452     10.42602    3.39249     
C           -8.33754    11.75946    4.13494     
C           -8.42988    13.09292    4.87737     
C           -8.52222    14.42637    5.61982     
C           -8.61457    15.75982    6.36226     
C           -8.70692    17.09327    7.10471     
C           -8.79926    18.42673    7.84715     
C           -8.8916     19.76017    8.5896      
C           -8.98394    21.09362    9.33204     
C           -9.07628    22.42708    10.07449    
C           -9.16863    23.76052    10.81693    
C           -11.21213   -5.61583    -1.38209    
C           -11.12009   -6.95038    -2.1226     
C           -11.02805   -8.28493    -2.86311    
C           -10.93601   -9.61948    -3.60361    
C           -10.84398   -10.95402   -4.34412    
C           -10.75194   -12.28857   -5.08463    
C           -10.65991   -13.62313   -5.82512    
C           -10.56786   -14.95768   -6.56563    
C           -10.47582   -16.29222   -7.30613    
C           -10.38379   -17.62677   -8.04664    
C           -10.29175   -18.96133   -8.78715    
C           -10.19971   -20.29587   -9.52765    
C           -10.10767   -21.63042   -10.26816   
C           -10.01564   -22.96497   -11.00866   
C           -7.87955    3.11366     -5.61533    
C           -7.94246    3.34706     -7.1251     
C           -8.00537    3.58046     -8.63487    
C           -8.06829    3.81386     -10.14464   
C           -8.1312     4.04726     -11.65441   
C           -8.19411    4.28066     -13.16418   
C           -8.25702    4.51406     -14.67395   
C           -8.31993    4.74745     -16.18372   
C           -8.38285    4.98085     -17.69349   
C           -8.44576    5.21425     -19.20326   
C           -8.50867    5.44765     -20.71303   
C           -8.57158    5.68105     -22.2228    
C           -8.63449    5.91445     -23.73258   
C           -8.69741    6.14785     -25.24235   
H           -15.96248   0.0         -0.0        
H           1.09        0.0         0.0         
