742

C           -161.27505  -0.61233    -0.01452    
C           -162.22527  -0.99772    -0.94839    
S           -162.05158  0.26563     1.32332     
C           -163.54572  -0.65366    -0.60727    
C           -163.61205  0.02641     0.60335     
F           -165.25151  1.05173     2.0525      
F           -161.93882  -1.6045     -2.1089     
S           -165.10735  -0.85055    -1.35698    
C           -164.93624  0.38717     0.92823     
C           -165.88157  0.0         -0.0        
C           -156.62562  0.43324     0.65008     
C           -157.59099  -0.48088    0.24644     
N           -157.28875  1.51277     1.2348      
C           -158.71288  1.32333     1.2063      
C           -157.75673  -1.72333    -0.48604    
O           -156.97003  -2.57176    -0.88333    
O           -159.49958  2.10896     1.71664     
C           -159.74197  -3.10212    -1.11207    
C           -156.72765  2.58347     2.04598     
C           -156.13833  3.70804     2.89797     
H           -156.31312  3.04518     1.14982     
H           -157.14218  2.12175     2.94213     
H           -160.15497  -3.29637    -0.12222    
C           -160.33131  -4.41971    -1.61652    
H           -159.32897  -2.90787    -2.10192    
N           -159.18087  -1.84765    -0.63178    
C           -158.87863  0.04494     0.53852     
C           -159.84398  -0.78077    -0.02427    
C           -150.58804  0.0         -0.0        
C           -151.5334   -0.99262    0.16174     
S           -151.36224  1.60152     0.00514     
C           -152.85758  -0.52615    0.29637     
C           -152.92388  0.86101     0.23411     
F           -154.53073  2.63834     0.24794     
F           -151.21815  -2.29829    0.19154     
S           -154.41805  -1.26379    0.47368     
C           -154.24432  1.33243     0.34597     
C           -155.19456  0.33596     0.51221     
C           -155.549    4.83259     3.74995     
C           -154.95967  5.95716     4.60195     
C           -154.37035  7.08173     5.45394     
C           -153.78102  8.20629     6.30593     
C           -153.1917   9.33086     7.15793     
C           -152.60237  10.45542    8.00991     
C           -152.01305  11.57999    8.8619      
C           -151.42372  12.70455    9.7139      
C           -150.83439  13.82912    10.56589    
C           -150.24507  14.95368    11.41788    
C           -155.55685  4.35569     1.64088     
C           -154.97537  5.00336     0.3838      
C           -154.39388  5.65102     -0.87328    
C           -153.8124   6.29869     -2.13036    
C           -153.23092  6.94635     -3.38744    
C           -152.64943  7.59402     -4.64452    
C           -152.06796  8.24167     -5.9016     
C           -151.48648  8.88934     -7.15868    
C           -160.92065  -5.7373     -2.12098    
C           -161.50998  -7.05489    -2.62543    
C           -162.09932  -8.37248    -3.12989    
C           -162.68866  -9.69007    -3.63434    
C           -163.278    -11.00767   -4.1388     
C           -163.86734  -12.32526   -4.64325    
C           -164.45667  -13.64285   -5.14771    
C           -165.04601  -14.96044   -5.65216    
C           -165.63535  -16.27803   -6.15662    
C           -166.22469  -17.59562   -6.66107    
C           -160.91064  -4.69219    -0.22801    
C           -161.48997  -4.96467    1.1605      
C           -162.06931  -5.23715    2.54902     
C           -162.64864  -5.50963    3.93753     
C           -163.22797  -5.78211    5.32604     
C           -163.80731  -6.0546     6.71455     
C           -164.38664  -6.32708    8.10307     
C           -164.96597  -6.59956    9.49158     
C           -144.54305  -0.61234    -0.01432    
C           -145.49327  -0.99803    -0.94806    
S           -145.31958  0.26607     1.32323     
C           -146.81371  -0.65386    -0.60705    
C           -146.88004  0.02661     0.60334     
F           -148.51951  1.05241     2.05215     
F           -145.20681  -1.6052     -2.10836    
S           -148.37534  -0.851      -1.35669    
C           -148.20423  0.38747     0.9281      
C           -149.14957  0.0         -0.0        
C           -139.89362  0.43346     0.64993     
C           -140.85898  -0.4808     0.2466      
N           -140.55674  1.51318     1.23429     
C           -141.98088  1.32373     1.20586     
C           -141.02472  -1.72349    -0.48547    
O           -140.23803  -2.57205    -0.88247    
O           -142.76757  2.10953     1.71594     
C           -143.00997  -3.10249    -1.11104    
C           -139.99565  2.58415     2.04512     
C           -139.40632  3.709       2.89674     
H           -139.58112  3.04556     1.14881     
H           -140.41018  2.12273     2.94143     
H           -143.42296  -3.29641    -0.12112    
C           -143.5993   -4.42025    -1.61505    
H           -142.59697  -2.90857    -2.10095    
N           -142.44886  -1.84786    -0.63117    
C           -142.14663  0.04512     0.53851     
C           -143.11198  -0.78077    -0.02401    
C           -133.85604  0.0         -0.0        
C           -134.80139  -0.99256    0.16207     
S           -134.63023  1.60152     0.0046      
C           -136.12557  -0.52605    0.29654     
C           -136.19188  0.86108     0.23382     
F           -137.79873  2.63842     0.24707     
F           -134.48615  -2.29822    0.1923      
S           -137.68605  -1.26363    0.4741      
C           -137.51232  1.33255     0.34552     
C           -138.46255  0.33613     0.5121      
C           -138.817    4.83384     3.74835     
C           -138.22767  5.95869     4.59997     
C           -137.63834  7.08354     5.45159     
C           -137.04902  8.20838     6.30321     
C           -136.45969  9.33323     7.15483     
C           -135.87036  10.45808    8.00644     
C           -135.28104  11.58293    8.85806     
C           -134.69171  12.70778    9.70968     
C           -134.10238  13.83263    10.5613     
C           -133.51306  14.95747    11.41291    
C           -138.82485  4.35624     1.63944     
C           -138.24336  5.00349     0.38214     
C           -137.66188  5.65073     -0.87515    
C           -137.0804   6.29798     -2.13245    
C           -136.49891  6.94523     -3.38975    
C           -135.91743  7.59248     -4.64704    
C           -135.33595  8.23971     -5.90433    
C           -134.75448  8.88696     -7.16163    
C           -144.18864  -5.738      -2.11907    
C           -144.77798  -7.05576    -2.62309    
C           -145.36732  -8.37352    -3.1271     
C           -145.95666  -9.69128    -3.63112    
C           -146.54599  -11.00904   -4.13514    
C           -147.13533  -12.3268    -4.63916    
C           -147.72467  -13.64456   -5.14317    
C           -148.31401  -14.96232   -5.64719    
C           -148.90335  -16.28008   -6.15121    
C           -149.49268  -17.59784   -6.65522    
C           -144.17864  -4.69227    -0.22645    
C           -144.75797  -4.96429    1.16215     
C           -145.3373   -5.23631    2.55076     
C           -145.91664  -5.50833    3.93936     
C           -146.49597  -5.78035    5.32796     
C           -147.0753   -6.05236    6.71657     
C           -147.65464  -6.32438    8.10517     
C           -148.23397  -6.5964     9.49377     
C           -127.81104  -0.61234    -0.01432    
C           -128.76126  -0.99803    -0.94806    
S           -128.58758  0.26607     1.32323     
C           -130.08171  -0.65386    -0.60705    
C           -130.14804  0.02661     0.60334     
F           -131.7875   1.05241     2.05215     
F           -128.47481  -1.6052     -2.10836    
S           -131.64334  -0.851      -1.35669    
C           -131.47223  0.38747     0.9281      
C           -132.41756  0.0         -0.0        
C           -123.16161  0.43346     0.64993     
C           -124.12698  -0.4808     0.2466      
N           -123.82474  1.51318     1.23429     
C           -125.24887  1.32373     1.20586     
C           -124.29272  -1.72349    -0.48547    
O           -123.50602  -2.57205    -0.88247    
O           -126.03557  2.10953     1.71594     
C           -126.27796  -3.10249    -1.11104    
C           -123.26364  2.58415     2.04512     
C           -122.67432  3.709       2.89674     
H           -122.84911  3.04556     1.14881     
H           -123.67817  2.12273     2.94143     
H           -126.69096  -3.29641    -0.12112    
C           -126.8673   -4.42025    -1.61505    
H           -125.86496  -2.90857    -2.10095    
N           -125.71686  -1.84786    -0.63117    
C           -125.41462  0.04512     0.53851     
C           -126.37997  -0.78077    -0.02401    
C           -117.12403  0.0         -0.0        
C           -118.06939  -0.99256    0.16207     
S           -117.89823  1.60152     0.0046      
C           -119.39357  -0.52605    0.29654     
C           -119.45987  0.86108     0.23382     
F           -121.06672  2.63842     0.24707     
F           -117.75414  -2.29822    0.1923      
S           -120.95404  -1.26363    0.4741      
C           -120.78031  1.33255     0.34552     
C           -121.73055  0.33613     0.5121      
C           -122.08499  4.83384     3.74835     
C           -121.49566  5.95869     4.59997     
C           -120.90634  7.08354     5.45159     
C           -120.31701  8.20838     6.30321     
C           -119.72769  9.33323     7.15483     
C           -119.13836  10.45808    8.00644     
C           -118.54904  11.58293    8.85806     
C           -117.95971  12.70778    9.70968     
C           -117.37038  13.83263    10.5613     
C           -116.78106  14.95747    11.41291    
C           -122.09284  4.35624     1.63944     
C           -121.51136  5.00349     0.38214     
C           -120.92987  5.65073     -0.87515    
C           -120.34839  6.29798     -2.13245    
C           -119.76691  6.94523     -3.38975    
C           -119.18542  7.59248     -4.64704    
C           -118.60395  8.23971     -5.90433    
C           -118.02247  8.88696     -7.16163    
C           -127.45664  -5.738      -2.11907    
C           -128.04597  -7.05576    -2.62309    
C           -128.63531  -8.37352    -3.1271     
C           -129.22465  -9.69128    -3.63112    
C           -129.81399  -11.00904   -4.13514    
C           -130.40333  -12.3268    -4.63916    
C           -130.99266  -13.64456   -5.14317    
C           -131.582    -14.96232   -5.64719    
C           -132.17134  -16.28008   -6.15121    
C           -132.76068  -17.59784   -6.65522    
C           -127.44663  -4.69227    -0.22645    
C           -128.02597  -4.96429    1.16215     
C           -128.6053   -5.23631    2.55076     
C           -129.18463  -5.50833    3.93936     
C           -129.76397  -5.78035    5.32796     
C           -130.3433   -6.05236    6.71657     
C           -130.92263  -6.32438    8.10517     
C           -131.50197  -6.5964     9.49377     
C           -111.07904  -0.61234    -0.01432    
C           -112.02926  -0.99803    -0.94806    
S           -111.85557  0.26607     1.32323     
C           -113.3497   -0.65386    -0.60705    
C           -113.41603  0.02661     0.60334     
F           -115.0555   1.05241     2.05215     
F           -111.7428   -1.6052     -2.10836    
S           -114.91133  -0.851      -1.35669    
C           -114.74022  0.38747     0.9281      
C           -115.68556  0.0         -0.0        
C           -106.42961  0.43346     0.64993     
C           -107.39497  -0.4808     0.2466      
N           -107.09273  1.51318     1.23429     
C           -108.51687  1.32373     1.20586     
C           -107.56071  -1.72349    -0.48547    
O           -106.77402  -2.57205    -0.88247    
O           -109.30357  2.10953     1.71594     
C           -109.54596  -3.10249    -1.11104    
C           -106.53164  2.58415     2.04512     
C           -105.94232  3.709       2.89674     
H           -106.11711  3.04556     1.14881     
H           -106.94617  2.12273     2.94143     
H           -109.95895  -3.29641    -0.12112    
C           -110.13529  -4.42025    -1.61505    
H           -109.13296  -2.90857    -2.10095    
N           -108.98485  -1.84786    -0.63117    
C           -108.68262  0.04512     0.53851     
C           -109.64797  -0.78077    -0.02401    
C           -100.39203  0.0         -0.0        
C           -101.33738  -0.99256    0.16207     
S           -101.16622  1.60152     0.0046      
C           -102.66156  -0.52605    0.29654     
C           -102.72787  0.86108     0.23382     
F           -104.33472  2.63842     0.24707     
F           -101.02214  -2.29822    0.1923      
S           -104.22204  -1.26363    0.4741      
C           -104.04831  1.33255     0.34552     
C           -104.99854  0.33613     0.5121      
C           -105.35299  4.83384     3.74835     
C           -104.76366  5.95869     4.59997     
C           -104.17434  7.08354     5.45159     
C           -103.58501  8.20838     6.30321     
C           -102.99568  9.33323     7.15483     
C           -102.40635  10.45808    8.00644     
C           -101.81703  11.58293    8.85806     
C           -101.2277   12.70778    9.70968     
C           -100.63837  13.83263    10.5613     
C           -100.04905  14.95747    11.41291    
C           -105.36084  4.35624     1.63944     
C           -104.77935  5.00349     0.38214     
C           -104.19787  5.65073     -0.87515    
C           -103.61639  6.29798     -2.13245    
C           -103.0349   6.94523     -3.38975    
C           -102.45342  7.59248     -4.64704    
C           -101.87194  8.23971     -5.90433    
C           -101.29047  8.88696     -7.16163    
C           -110.72463  -5.738      -2.11907    
C           -111.31397  -7.05576    -2.62309    
C           -111.90331  -8.37352    -3.1271     
C           -112.49265  -9.69128    -3.63112    
C           -113.08198  -11.00904   -4.13514    
C           -113.67132  -12.3268    -4.63916    
C           -114.26066  -13.64456   -5.14317    
C           -114.85     -14.96232   -5.64719    
C           -115.43934  -16.28008   -6.15121    
C           -116.02867  -17.59784   -6.65522    
C           -110.71463  -4.69227    -0.22645    
C           -111.29396  -4.96429    1.16215     
C           -111.87329  -5.23631    2.55076     
C           -112.45263  -5.50833    3.93936     
C           -113.03196  -5.78035    5.32796     
C           -113.61129  -6.05236    6.71657     
C           -114.19063  -6.32438    8.10517     
C           -114.76996  -6.5964     9.49377     
C           -94.34703   -0.61234    -0.01432    
C           -95.29725   -0.99803    -0.94806    
S           -95.12357   0.26607     1.32323     
C           -96.6177    -0.65386    -0.60705    
C           -96.68403   0.02661     0.60334     
F           -98.3235    1.05241     2.05215     
F           -95.0108    -1.6052     -2.10836    
S           -98.17933   -0.851      -1.35669    
C           -98.00822   0.38747     0.9281      
C           -98.95355   0.0         -0.0        
C           -89.6976    0.43346     0.64993     
C           -90.66297   -0.4808     0.2466      
N           -90.36073   1.51318     1.23429     
C           -91.78487   1.32373     1.20586     
C           -90.82871   -1.72349    -0.48547    
O           -90.04201   -2.57205    -0.88247    
O           -92.57156   2.10953     1.71594     
C           -92.81395   -3.10249    -1.11104    
C           -89.79963   2.58415     2.04512     
C           -89.21031   3.709       2.89674     
H           -89.3851    3.04556     1.14881     
H           -90.21416   2.12273     2.94143     
H           -93.22695   -3.29641    -0.12112    
C           -93.40329   -4.42025    -1.61505    
H           -92.40095   -2.90857    -2.10095    
N           -92.25285   -1.84786    -0.63117    
C           -91.95061   0.04512     0.53851     
C           -92.91596   -0.78077    -0.02401    
C           -83.66002   0.0         -0.0        
C           -84.60538   -0.99256    0.16207     
S           -84.43422   1.60152     0.0046      
C           -85.92956   -0.52605    0.29654     
C           -85.99586   0.86108     0.23382     
F           -87.60271   2.63842     0.24707     
F           -84.29013   -2.29822    0.1923      
S           -87.49003   -1.26363    0.4741      
C           -87.3163    1.33255     0.34552     
C           -88.26654   0.33613     0.5121      
C           -88.62098   4.83384     3.74835     
C           -88.03165   5.95869     4.59997     
C           -87.44233   7.08354     5.45159     
C           -86.853     8.20838     6.30321     
C           -86.26368   9.33323     7.15483     
C           -85.67435   10.45808    8.00644     
C           -85.08503   11.58293    8.85806     
C           -84.4957    12.70778    9.70968     
C           -83.90637   13.83263    10.5613     
C           -83.31705   14.95747    11.41291    
C           -88.62883   4.35624     1.63944     
C           -88.04735   5.00349     0.38214     
C           -87.46586   5.65073     -0.87515    
C           -86.88438   6.29798     -2.13245    
C           -86.3029    6.94523     -3.38975    
C           -85.72141   7.59248     -4.64704    
C           -85.13994   8.23971     -5.90433    
C           -84.55846   8.88696     -7.16163    
C           -93.99263   -5.738      -2.11907    
C           -94.58197   -7.05576    -2.62309    
C           -95.1713    -8.37352    -3.1271     
C           -95.76064   -9.69128    -3.63112    
C           -96.34998   -11.00904   -4.13514    
C           -96.93932   -12.3268    -4.63916    
C           -97.52866   -13.64456   -5.14317    
C           -98.11799   -14.96232   -5.64719    
C           -98.70733   -16.28008   -6.15121    
C           -99.29667   -17.59784   -6.65522    
C           -93.98262   -4.69227    -0.22645    
C           -94.56196   -4.96429    1.16215     
C           -95.14129   -5.23631    2.55076     
C           -95.72062   -5.50833    3.93936     
C           -96.29996   -5.78035    5.32796     
C           -96.87929   -6.05236    6.71657     
C           -97.45862   -6.32438    8.10517     
C           -98.03796   -6.5964     9.49377     
C           -77.61503   -0.61234    -0.01432    
C           -78.56525   -0.99803    -0.94806    
S           -78.39156   0.26607     1.32323     
C           -79.88569   -0.65386    -0.60705    
C           -79.95202   0.02661     0.60334     
F           -81.59149   1.05241     2.05215     
F           -78.27879   -1.6052     -2.10836    
S           -81.44732   -0.851      -1.35669    
C           -81.27621   0.38747     0.9281      
C           -82.22155   0.0         -0.0        
C           -72.9656    0.43346     0.64993     
C           -73.93096   -0.4808     0.2466      
N           -73.62873   1.51318     1.23429     
C           -75.05286   1.32373     1.20586     
C           -74.0967    -1.72349    -0.48547    
O           -73.31001   -2.57205    -0.88247    
O           -75.83956   2.10953     1.71594     
C           -76.08195   -3.10249    -1.11104    
C           -73.06763   2.58415     2.04512     
C           -72.47831   3.709       2.89674     
H           -72.6531    3.04556     1.14881     
H           -73.48216   2.12273     2.94143     
H           -76.49494   -3.29641    -0.12112    
C           -76.67128   -4.42025    -1.61505    
H           -75.66895   -2.90857    -2.10095    
N           -75.52084   -1.84786    -0.63117    
C           -75.21861   0.04512     0.53851     
C           -76.18396   -0.78077    -0.02401    
C           -66.92802   0.0         -0.0        
C           -67.87337   -0.99256    0.16207     
S           -67.70222   1.60152     0.0046      
C           -69.19755   -0.52605    0.29654     
C           -69.26386   0.86108     0.23382     
F           -70.87071   2.63842     0.24707     
F           -67.55813   -2.29822    0.1923      
S           -70.75803   -1.26363    0.4741      
C           -70.5843    1.33255     0.34552     
C           -71.53453   0.33613     0.5121      
C           -71.88898   4.83384     3.74835     
C           -71.29965   5.95869     4.59997     
C           -70.71033   7.08354     5.45159     
C           -70.121     8.20838     6.30321     
C           -69.53168   9.33323     7.15483     
C           -68.94234   10.45808    8.00644     
C           -68.35302   11.58293    8.85806     
C           -67.76369   12.70778    9.70968     
C           -67.17436   13.83263    10.5613     
C           -66.58505   14.95747    11.41291    
C           -71.89683   4.35624     1.63944     
C           -71.31534   5.00349     0.38214     
C           -70.73386   5.65073     -0.87515    
C           -70.15238   6.29798     -2.13245    
C           -69.57089   6.94523     -3.38975    
C           -68.98941   7.59248     -4.64704    
C           -68.40793   8.23971     -5.90433    
C           -67.82646   8.88696     -7.16163    
C           -77.26062   -5.738      -2.11907    
C           -77.84996   -7.05576    -2.62309    
C           -78.4393    -8.37352    -3.1271     
C           -79.02864   -9.69128    -3.63112    
C           -79.61797   -11.00904   -4.13514    
C           -80.20731   -12.3268    -4.63916    
C           -80.79665   -13.64456   -5.14317    
C           -81.38599   -14.96232   -5.64719    
C           -81.97533   -16.28008   -6.15121    
C           -82.56466   -17.59784   -6.65522    
C           -77.25062   -4.69227    -0.22645    
C           -77.82995   -4.96429    1.16215     
C           -78.40928   -5.23631    2.55076     
C           -78.98862   -5.50833    3.93936     
C           -79.56795   -5.78035    5.32796     
C           -80.14728   -6.05236    6.71657     
C           -80.72662   -6.32438    8.10517     
C           -81.30595   -6.5964     9.49377     
C           -60.88302   -0.61234    -0.01432    
C           -61.83324   -0.99803    -0.94806    
S           -61.65956   0.26607     1.32323     
C           -63.15369   -0.65386    -0.60705    
C           -63.22002   0.02661     0.60334     
F           -64.85949   1.05241     2.05215     
F           -61.54679   -1.6052     -2.10836    
S           -64.71532   -0.851      -1.35669    
C           -64.54421   0.38747     0.9281      
C           -65.48954   0.0         -0.0        
C           -56.23359   0.43346     0.64993     
C           -57.19896   -0.4808     0.2466      
N           -56.89672   1.51318     1.23429     
C           -58.32086   1.32373     1.20586     
C           -57.3647    -1.72349    -0.48547    
O           -56.57801   -2.57205    -0.88247    
O           -59.10755   2.10953     1.71594     
C           -59.34994   -3.10249    -1.11104    
C           -56.33562   2.58415     2.04512     
C           -55.7463    3.709       2.89674     
H           -55.9211    3.04556     1.14881     
H           -56.75015   2.12273     2.94143     
H           -59.76294   -3.29641    -0.12112    
C           -59.93928   -4.42025    -1.61505    
H           -58.93694   -2.90857    -2.10095    
N           -58.78884   -1.84786    -0.63117    
C           -58.4866    0.04512     0.53851     
C           -59.45195   -0.78077    -0.02401    
C           -50.19601   0.0         -0.0        
C           -51.14137   -0.99256    0.16207     
S           -50.97021   1.60152     0.0046      
C           -52.46555   -0.52605    0.29654     
C           -52.53185   0.86108     0.23382     
F           -54.1387    2.63842     0.24707     
F           -50.82612   -2.29822    0.1923      
S           -54.02602   -1.26363    0.4741      
C           -53.85229   1.33255     0.34552     
C           -54.80253   0.33613     0.5121      
C           -55.15697   4.83384     3.74835     
C           -54.56764   5.95869     4.59997     
C           -53.97832   7.08354     5.45159     
C           -53.38899   8.20838     6.30321     
C           -52.79967   9.33323     7.15483     
C           -52.21034   10.45808    8.00644     
C           -51.62102   11.58293    8.85806     
C           -51.03169   12.70778    9.70968     
C           -50.44236   13.83263    10.5613     
C           -49.85304   14.95747    11.41291    
C           -55.16482   4.35624     1.63944     
C           -54.58334   5.00349     0.38214     
C           -54.00185   5.65073     -0.87515    
C           -53.42037   6.29798     -2.13245    
C           -52.83889   6.94523     -3.38975    
C           -52.25741   7.59248     -4.64704    
C           -51.67593   8.23971     -5.90433    
C           -51.09445   8.88696     -7.16163    
C           -60.52862   -5.738      -2.11907    
C           -61.11796   -7.05576    -2.62309    
C           -61.70729   -8.37352    -3.1271     
C           -62.29663   -9.69128    -3.63112    
C           -62.88597   -11.00904   -4.13514    
C           -63.47531   -12.3268    -4.63916    
C           -64.06465   -13.64456   -5.14317    
C           -64.65398   -14.96232   -5.64719    
C           -65.24332   -16.28008   -6.15121    
C           -65.83266   -17.59784   -6.65522    
C           -60.51861   -4.69227    -0.22645    
C           -61.09795   -4.96429    1.16215     
C           -61.67728   -5.23631    2.55076     
C           -62.25661   -5.50833    3.93936     
C           -62.83595   -5.78035    5.32796     
C           -63.41528   -6.05236    6.71657     
C           -63.99461   -6.32438    8.10517     
C           -64.57395   -6.5964     9.49377     
C           -44.15102   -0.61234    -0.01432    
C           -45.10124   -0.99803    -0.94806    
S           -44.92755   0.26607     1.32323     
C           -46.42168   -0.65386    -0.60705    
C           -46.48801   0.02661     0.60334     
F           -48.12748   1.05241     2.05215     
F           -44.81478   -1.6052     -2.10836    
S           -47.98331   -0.851      -1.35669    
C           -47.8122    0.38747     0.9281      
C           -48.75754   0.0         -0.0        
C           -39.50159   0.43346     0.64993     
C           -40.46695   -0.4808     0.2466      
N           -40.16472   1.51318     1.23429     
C           -41.58885   1.32373     1.20586     
C           -40.63269   -1.72349    -0.48547    
O           -39.846     -2.57205    -0.88247    
O           -42.37555   2.10953     1.71594     
C           -42.61794   -3.10249    -1.11104    
C           -39.60362   2.58415     2.04512     
C           -39.0143    3.709       2.89674     
H           -39.18909   3.04556     1.14881     
H           -40.01815   2.12273     2.94143     
H           -43.03093   -3.29641    -0.12112    
C           -43.20727   -4.42025    -1.61505    
H           -42.20494   -2.90857    -2.10095    
N           -42.05683   -1.84786    -0.63117    
C           -41.7546    0.04512     0.53851     
C           -42.71995   -0.78077    -0.02401    
C           -33.46401   0.0         -0.0        
C           -34.40936   -0.99256    0.16207     
S           -34.23821   1.60152     0.0046      
C           -35.73354   -0.52605    0.29654     
C           -35.79985   0.86108     0.23382     
F           -37.4067    2.63842     0.24707     
F           -34.09412   -2.29822    0.1923      
S           -37.29402   -1.26363    0.4741      
C           -37.12029   1.33255     0.34552     
C           -38.07052   0.33613     0.5121      
C           -38.42497   4.83384     3.74835     
C           -37.83564   5.95869     4.59997     
C           -37.24632   7.08354     5.45159     
C           -36.65699   8.20838     6.30321     
C           -36.06767   9.33323     7.15483     
C           -35.47833   10.45808    8.00644     
C           -34.88901   11.58293    8.85806     
C           -34.29968   12.70778    9.70968     
C           -33.71035   13.83263    10.5613     
C           -33.12104   14.95747    11.41291    
C           -38.43282   4.35624     1.63944     
C           -37.85133   5.00349     0.38214     
C           -37.26985   5.65073     -0.87515    
C           -36.68837   6.29798     -2.13245    
C           -36.10688   6.94523     -3.38975    
C           -35.5254    7.59248     -4.64704    
C           -34.94392   8.23971     -5.90433    
C           -34.36245   8.88696     -7.16163    
C           -43.79661   -5.738      -2.11907    
C           -44.38595   -7.05576    -2.62309    
C           -44.97529   -8.37352    -3.1271     
C           -45.56463   -9.69128    -3.63112    
C           -46.15396   -11.00904   -4.13514    
C           -46.7433    -12.3268    -4.63916    
C           -47.33264   -13.64456   -5.14317    
C           -47.92198   -14.96232   -5.64719    
C           -48.51132   -16.28008   -6.15121    
C           -49.10065   -17.59784   -6.65522    
C           -43.78661   -4.69227    -0.22645    
C           -44.36594   -4.96429    1.16215     
C           -44.94527   -5.23631    2.55076     
C           -45.52461   -5.50833    3.93936     
C           -46.10394   -5.78035    5.32796     
C           -46.68327   -6.05236    6.71657     
C           -47.26261   -6.32438    8.10517     
C           -47.84194   -6.5964     9.49377     
C           -27.41901   -0.61234    -0.01432    
C           -28.36923   -0.99803    -0.94806    
S           -28.19555   0.26607     1.32323     
C           -29.68968   -0.65386    -0.60705    
C           -29.75601   0.02661     0.60334     
F           -31.39548   1.05241     2.05215     
F           -28.08278   -1.6052     -2.10836    
S           -31.25131   -0.851      -1.35669    
C           -31.0802    0.38747     0.9281      
C           -32.02553   0.0         -0.0        
C           -22.76958   0.43346     0.64993     
C           -23.73495   -0.4808     0.2466      
N           -23.43271   1.51318     1.23429     
C           -24.85685   1.32373     1.20586     
C           -23.90069   -1.72349    -0.48547    
O           -23.114     -2.57205    -0.88247    
O           -25.64354   2.10953     1.71594     
C           -25.88593   -3.10249    -1.11104    
C           -22.87161   2.58415     2.04512     
C           -22.28229   3.709       2.89674     
H           -22.45709   3.04556     1.14881     
H           -23.28614   2.12273     2.94143     
H           -26.29893   -3.29641    -0.12112    
C           -26.47527   -4.42025    -1.61505    
H           -25.47293   -2.90857    -2.10095    
N           -25.32483   -1.84786    -0.63117    
C           -25.02259   0.04512     0.53851     
C           -25.98795   -0.78077    -0.02401    
C           -16.732     0.0         -0.0        
C           -17.67736   -0.99256    0.16207     
S           -17.5062    1.60152     0.0046      
C           -19.00154   -0.52605    0.29654     
C           -19.06784   0.86108     0.23382     
F           -20.67469   2.63842     0.24707     
F           -17.36211   -2.29822    0.1923      
S           -20.56201   -1.26363    0.4741      
C           -20.38828   1.33255     0.34552     
C           -21.33852   0.33613     0.5121      
C           -21.69296   4.83384     3.74835     
C           -21.10363   5.95869     4.59997     
C           -20.51431   7.08354     5.45159     
C           -19.92498   8.20838     6.30321     
C           -19.33566   9.33323     7.15483     
C           -18.74633   10.45808    8.00644     
C           -18.15701   11.58293    8.85806     
C           -17.56768   12.70778    9.70968     
C           -16.97835   13.83263    10.5613     
C           -16.38903   14.95747    11.41291    
C           -21.70081   4.35624     1.63944     
C           -21.11933   5.00349     0.38214     
C           -20.53785   5.65073     -0.87515    
C           -19.95636   6.29798     -2.13245    
C           -19.37488   6.94523     -3.38975    
C           -18.7934    7.59248     -4.64704    
C           -18.21192   8.23971     -5.90433    
C           -17.63045   8.88696     -7.16163    
C           -27.06461   -5.738      -2.11907    
C           -27.65395   -7.05576    -2.62309    
C           -28.24328   -8.37352    -3.1271     
C           -28.83262   -9.69128    -3.63112    
C           -29.42196   -11.00904   -4.13514    
C           -30.0113    -12.3268    -4.63916    
C           -30.60064   -13.64456   -5.14317    
C           -31.18997   -14.96232   -5.64719    
C           -31.77931   -16.28008   -6.15121    
C           -32.36865   -17.59784   -6.65522    
C           -27.0546    -4.69227    -0.22645    
C           -27.63394   -4.96429    1.16215     
C           -28.21327   -5.23631    2.55076     
C           -28.7926    -5.50833    3.93936     
C           -29.37194   -5.78035    5.32796     
C           -29.95127   -6.05236    6.71657     
C           -30.5306    -6.32438    8.10517     
C           -31.10994   -6.5964     9.49377     
C           -10.68701   -0.61234    -0.01432    
C           -11.63723   -0.99803    -0.94806    
S           -11.46354   0.26607     1.32323     
C           -12.95767   -0.65386    -0.60705    
C           -13.024     0.02661     0.60334     
F           -14.66347   1.05241     2.05215     
F           -11.35077   -1.6052     -2.10836    
S           -14.5193    -0.851      -1.35669    
C           -14.34819   0.38747     0.9281      
C           -15.29353   0.0         0.0         
C           -6.03758    0.43346     0.64993     
C           -7.00295    -0.4808     0.2466      
N           -6.70071    1.51318     1.23429     
C           -8.12484    1.32373     1.20586     
C           -7.16869    -1.72349    -0.48547    
O           -6.38199    -2.57205    -0.88247    
O           -8.91154    2.10953     1.71594     
C           -9.15393    -3.10249    -1.11104    
C           -6.13961    2.58415     2.04512     
C           -5.55029    3.709       2.89674     
H           -5.72508    3.04556     1.14881     
H           -6.55414    2.12273     2.94143     
H           -9.56692    -3.29641    -0.12112    
C           -9.74327    -4.42025    -1.61505    
H           -8.74093    -2.90857    -2.10095    
N           -8.59282    -1.84786    -0.63117    
C           -8.29059    0.04512     0.53851     
C           -9.25594    -0.78077    -0.02401    
C           0.0         0.0         0.0         
C           -0.94535    -0.99256    0.16207     
S           -0.7742     1.60152     0.0046      
C           -2.26953    -0.52605    0.29654     
C           -2.33584    0.86108     0.23382     
F           -3.94269    2.63842     0.24707     
F           -0.63011    -2.29822    0.1923      
S           -3.83001    -1.26363    0.4741      
C           -3.65628    1.33255     0.34552     
C           -4.60651    0.33613     0.5121      
C           -4.96096    4.83384     3.74835     
C           -4.37163    5.95869     4.59997     
C           -3.78231    7.08354     5.45159     
C           -3.19298    8.20838     6.30321     
C           -2.60366    9.33323     7.15483     
C           -2.01432    10.45808    8.00644     
C           -1.425      11.58293    8.85806     
C           -0.83567    12.70778    9.70968     
C           -0.24634    13.83263    10.5613     
C           0.34297     14.95747    11.41291    
C           -4.96881    4.35624     1.63944     
C           -4.38732    5.00349     0.38214     
C           -3.80584    5.65073     -0.87515    
C           -3.22436    6.29798     -2.13245    
C           -2.64287    6.94523     -3.38975    
C           -2.06139    7.59248     -4.64704    
C           -1.47992    8.23971     -5.90433    
C           -0.89844    8.88696     -7.16163    
C           -10.3326    -5.738      -2.11907    
C           -10.92194   -7.05576    -2.62309    
C           -11.51128   -8.37352    -3.1271     
C           -12.10062   -9.69128    -3.63112    
C           -12.68996   -11.00904   -4.13514    
C           -13.27929   -12.3268    -4.63916    
C           -13.86863   -13.64456   -5.14317    
C           -14.45797   -14.96232   -5.64719    
C           -15.04731   -16.28008   -6.15121    
C           -15.63665   -17.59784   -6.65522    
C           -10.3226    -4.69227    -0.22645    
C           -10.90193   -4.96429    1.16215     
C           -11.48127   -5.23631    2.55076     
C           -12.0606    -5.50833    3.93936     
C           -12.63993   -5.78035    5.32796     
C           -13.21927   -6.05236    6.71657     
C           -13.7986    -6.32438    8.10517     
C           -14.37793   -6.5964     9.49377     
H           -166.97157  0.0         -0.0        
H           1.09        0.0         0.0         
