792

C           -143.60082  0.41558     -0.00143    
N           -144.23301  -0.79159    0.00321     
C           -144.33057  1.61227     -0.00595    
C           -145.54466  -0.77149    0.00321     
C           -146.39782  0.3703      -0.00105    
C           -147.78034  -0.11738    0.00083     
C           -147.65224  -1.63643    0.00651     
N           -146.30157  -1.93469    0.00762     
C           -148.99559  0.53182     -0.00151    
C           -149.12352  2.05126     -0.00677    
N           -150.47384  2.34955     -0.00797    
C           -151.23077  1.186       -0.00392    
C           -151.04651  -1.18205    0.00426     
C           -150.37829  0.04444     0.00013     
C           -145.73001  1.59683     -0.0058     
O           -148.24972  2.90541     -0.00975    
O           -148.52571  -2.49077    0.00982     
C           -151.01156  3.69543     -0.01269    
C           -145.76384  -3.28062    0.01272     
H           -146.18358  -3.45207    -0.97851    
C           -145.19657  -4.70049    0.01809     
H           -145.34409  -3.10918    1.00394     
H           -150.59161  3.86667     0.97848     
C           -151.57883  5.11529     -0.01767    
H           -151.43149  3.52417     -1.00386    
H           -152.96878  -2.14272    0.00735     
H           -150.49246  -2.10755    0.00751     
H           -146.28433  2.52215     -0.00925    
H           -143.80885  2.55842     -0.00961    
C           -152.44609  -1.19679    0.00416     
N           -152.54282  1.20647     -0.0041     
C           -153.17446  0.0         -0.0        
C           -139.18844  0.0         -0.0        
C           -139.78339  1.31365     -0.00517    
C           -140.08919  -1.05192    0.0042      
N           -139.12369  2.4768      -0.00979    
N           -141.60837  2.77053     -0.01083    
S           -140.24168  3.6758      -0.01446    
H           -142.1207   -1.76867    0.00713     
H           -139.68409  -2.05669    0.00818     
C           -141.49243  -0.88611    0.00362     
C           -141.23818  1.4856      -0.00577    
C           -142.12315  0.34685     -0.00122    
C           -152.1461   6.53516     -0.02265    
C           -152.71338  7.95502     -0.02763    
C           -153.28064  9.37489     -0.03262    
C           -153.84792  10.79476    -0.03759    
C           -154.41519  12.21462    -0.04258    
C           -154.98247  13.63449    -0.04756    
C           -155.54974  15.05435    -0.05254    
C           -156.11702  16.47421    -0.05753    
C           -156.68428  17.89408    -0.06251    
C           -157.25155  19.31395    -0.06749    
C           -150.98975  5.35551     1.3727      
C           -150.40068  5.59574     2.76307     
C           -149.81161  5.83597     4.15344     
C           -149.22255  6.0762      5.54382     
C           -148.63348  6.31642     6.93419     
C           -148.04441  6.55665     8.32456     
C           -147.45534  6.79688     9.71493     
C           -146.86627  7.03711     11.1053     
C           -144.6293   -6.12036    0.02346     
C           -144.06204  -7.54022    0.02883     
C           -143.49477  -8.96009    0.03421     
C           -142.9275   -10.37996   0.03958     
C           -142.36024  -11.79982   0.04495     
C           -141.79297  -13.21969   0.05032     
C           -141.22571  -14.63956   0.0557      
C           -140.65844  -16.05942   0.06107     
C           -140.09117  -17.47929   0.06644     
C           -139.52391  -18.89916   0.07181     
C           -145.78537  -4.94099    -1.37235    
C           -146.37416  -5.18149    -2.76279    
C           -146.96296  -5.42198    -4.15323    
C           -147.55176  -5.66248    -5.54367    
C           -148.14055  -5.90298    -6.93411    
C           -148.72935  -6.14348    -8.32455    
C           -149.31814  -6.38397    -9.71498    
C           -149.90694  -6.62447    -11.10542   
C           -128.13544  0.41559     -0.00046    
N           -128.76763  -0.79159    0.00136     
C           -128.86519  1.61228     -0.00219    
C           -130.07928  -0.7715     0.00141     
C           -130.93244  0.37031     -0.00019    
C           -132.31496  -0.11738    0.00055     
C           -132.18685  -1.63644    0.00269     
N           -130.83618  -1.9347     0.0031      
C           -133.5302   0.53182     -0.00027    
C           -133.65814  2.05127     -0.00198    
N           -135.00846  2.34956     -0.00248    
C           -135.76538  1.186       -0.00115    
C           -135.58113  -1.18205    0.0015      
C           -134.91291  0.04443     0.00023     
C           -130.26463  1.59684     -0.00207    
O           -132.78434  2.90543     -0.00296    
O           -133.06033  -2.49078    0.004       
C           -135.54617  3.69545     -0.00406    
C           -130.29845  -3.28065    0.00505     
H           -130.7182   -3.44978    -0.98657    
C           -129.73119  -4.70052    0.00711     
H           -129.87871  -3.11152    0.99667     
H           -135.12623  3.86438     0.98751     
C           -136.11344  5.11532     -0.00571    
H           -135.96611  3.52651     -0.99563    
H           -137.50339  -2.14273    0.00234     
H           -135.02708  -2.10756    0.00258     
H           -130.81895  2.52216     -0.00336    
H           -128.34347  2.55844     -0.00363    
C           -136.98071  -1.1968     0.00136     
N           -137.07743  1.20648     -0.00128    
C           -137.70908  0.0         -0.0        
C           -123.72306  0.0         -0.0        
C           -124.31801  1.31365     -0.0021     
C           -124.62381  -1.05193    0.00175     
N           -123.65831  2.47682     -0.004      
N           -126.14299  2.77055     -0.00436    
S           -124.77629  3.67582     -0.00588    
H           -126.65532  -1.76868    0.003       
H           -124.21871  -2.0567     0.00337     
C           -126.02705  -0.88612    0.00155     
C           -125.7728   1.48561     -0.0023     
C           -126.65776  0.34686     -0.00041    
C           -136.68072  6.53519     -0.00738    
C           -137.24799  7.95507     -0.00904    
C           -137.81526  9.37494     -0.01071    
C           -138.38253  10.79481    -0.01237    
C           -138.94981  12.21469    -0.01404    
C           -139.51708  13.63456    -0.0157     
C           -140.08436  15.05443    -0.01737    
C           -140.65163  16.4743     -0.01903    
C           -141.2189   17.89418    -0.0207     
C           -141.78617  19.31405    -0.02236    
C           -135.52437  5.35229     1.38521     
C           -134.9353   5.58927     2.77614     
C           -134.34623  5.82625     4.16707     
C           -133.75717  6.06323     5.558       
C           -133.1681   6.3002      6.94893     
C           -132.57903  6.53718     8.33985     
C           -131.98996  6.77416     9.73078     
C           -131.40089  7.01114     11.12171    
C           -129.16392  -6.1204     0.00916     
C           -128.59665  -7.54027    0.01122     
C           -128.02939  -8.96015    0.01327     
C           -127.46212  -10.38002   0.01533     
C           -126.89486  -11.7999    0.01738     
C           -126.32759  -13.21977   0.01943     
C           -125.76032  -14.63965   0.02149     
C           -125.19306  -16.05952   0.02354     
C           -124.62579  -17.4794    0.0256      
C           -124.05852  -18.89927   0.02765     
C           -130.31998  -4.93777    -1.38389    
C           -130.90878  -5.17502    -2.77489    
C           -131.49758  -5.41227    -4.16589    
C           -132.08637  -5.64951    -5.55688    
C           -132.67517  -5.88676    -6.94788    
C           -133.26397  -6.12401    -8.33888    
C           -133.85276  -6.36126    -9.72987    
C           -134.44156  -6.59851    -11.12087   
C           -112.67006  0.41559     -0.00046    
N           -113.30224  -0.79159    0.00136     
C           -113.39981  1.61228     -0.00219    
C           -114.61389  -0.7715     0.00141     
C           -115.46705  0.37031     -0.00019    
C           -116.84957  -0.11738    0.00055     
C           -116.72147  -1.63644    0.00269     
N           -115.3708   -1.9347     0.0031      
C           -118.06482  0.53182     -0.00027    
C           -118.19275  2.05127     -0.00198    
N           -119.54307  2.34956     -0.00248    
C           -120.3      1.186       -0.00115    
C           -120.11575  -1.18205    0.0015      
C           -119.44752  0.04443     0.00023     
C           -114.79924  1.59684     -0.00207    
O           -117.31896  2.90543     -0.00296    
O           -117.59495  -2.49078    0.004       
C           -120.08079  3.69545     -0.00406    
C           -114.83307  -3.28065    0.00505     
H           -115.25281  -3.44978    -0.98657    
C           -114.2658   -4.70052    0.00711     
H           -114.41333  -3.11152    0.99667     
H           -119.66085  3.86438     0.98751     
C           -120.64806  5.11532     -0.00571    
H           -120.50073  3.52651     -0.99563    
H           -122.03801  -2.14273    0.00234     
H           -119.5617   -2.10756    0.00258     
H           -115.35356  2.52216     -0.00336    
H           -112.87809  2.55844     -0.00363    
C           -121.51533  -1.1968     0.00136     
N           -121.61205  1.20648     -0.00128    
C           -122.2437   0.0         -0.0        
C           -108.25768  0.0         -0.0        
C           -108.85262  1.31365     -0.0021     
C           -109.15843  -1.05193    0.00175     
N           -108.19293  2.47682     -0.004      
N           -110.67761  2.77055     -0.00436    
S           -109.31091  3.67582     -0.00588    
H           -111.18994  -1.76868    0.003       
H           -108.75333  -2.0567     0.00337     
C           -110.56166  -0.88612    0.00155     
C           -110.30742  1.48561     -0.0023     
C           -111.19238  0.34686     -0.00041    
C           -121.21534  6.53519     -0.00738    
C           -121.78261  7.95507     -0.00904    
C           -122.34988  9.37494     -0.01071    
C           -122.91715  10.79481    -0.01237    
C           -123.48443  12.21469    -0.01404    
C           -124.0517   13.63456    -0.0157     
C           -124.61898  15.05443    -0.01737    
C           -125.18625  16.4743     -0.01903    
C           -125.75351  17.89418    -0.0207     
C           -126.32079  19.31405    -0.02236    
C           -120.05899  5.35229     1.38521     
C           -119.46992  5.58927     2.77614     
C           -118.88085  5.82625     4.16707     
C           -118.29179  6.06323     5.558       
C           -117.70271  6.3002      6.94893     
C           -117.11364  6.53718     8.33985     
C           -116.52457  6.77416     9.73078     
C           -115.9355   7.01114     11.12171    
C           -113.69854  -6.1204     0.00916     
C           -113.13127  -7.54027    0.01122     
C           -112.56401  -8.96015    0.01327     
C           -111.99674  -10.38002   0.01533     
C           -111.42947  -11.7999    0.01738     
C           -110.86221  -13.21977   0.01943     
C           -110.29494  -14.63965   0.02149     
C           -109.72767  -16.05952   0.02354     
C           -109.16041  -17.4794    0.0256      
C           -108.59314  -18.89927   0.02765     
C           -114.8546   -4.93777    -1.38389    
C           -115.4434   -5.17502    -2.77489    
C           -116.03219  -5.41227    -4.16589    
C           -116.62099  -5.64951    -5.55688    
C           -117.20979  -5.88676    -6.94788    
C           -117.79858  -6.12401    -8.33888    
C           -118.38738  -6.36126    -9.72987    
C           -118.97618  -6.59851    -11.12087   
C           -97.20468   0.41559     -0.00046    
N           -97.83686   -0.79159    0.00136     
C           -97.93442   1.61228     -0.00219    
C           -99.14851   -0.7715     0.00141     
C           -100.00167  0.37031     -0.00019    
C           -101.38419  -0.11738    0.00055     
C           -101.25609  -1.63644    0.00269     
N           -99.90542   -1.9347     0.0031      
C           -102.59944  0.53182     -0.00027    
C           -102.72737  2.05127     -0.00198    
N           -104.07769  2.34956     -0.00248    
C           -104.83462  1.186       -0.00115    
C           -104.65037  -1.18205    0.0015      
C           -103.98214  0.04443     0.00023     
C           -99.33386   1.59684     -0.00207    
O           -101.85357  2.90543     -0.00296    
O           -102.12957  -2.49078    0.004       
C           -104.61541  3.69545     -0.00406    
C           -99.36769   -3.28065    0.00505     
H           -99.78743   -3.44978    -0.98657    
C           -98.80042   -4.70052    0.00711     
H           -98.94794   -3.11152    0.99667     
H           -104.19547  3.86438     0.98751     
C           -105.18268  5.11532     -0.00571    
H           -105.03535  3.52651     -0.99563    
H           -106.57263  -2.14273    0.00234     
H           -104.09631  -2.10756    0.00258     
H           -99.88818   2.52216     -0.00336    
H           -97.41271   2.55844     -0.00363    
C           -106.04995  -1.1968     0.00136     
N           -106.14667  1.20648     -0.00128    
C           -106.77831  0.0         -0.0        
C           -92.79229   0.0         -0.0        
C           -93.38724   1.31365     -0.0021     
C           -93.69304   -1.05193    0.00175     
N           -92.72754   2.47682     -0.004      
N           -95.21223   2.77055     -0.00436    
S           -93.84553   3.67582     -0.00588    
H           -95.72455   -1.76868    0.003       
H           -93.28795   -2.0567     0.00337     
C           -95.09628   -0.88612    0.00155     
C           -94.84203   1.48561     -0.0023     
C           -95.727     0.34686     -0.00041    
C           -105.74995  6.53519     -0.00738    
C           -106.31723  7.95507     -0.00904    
C           -106.8845   9.37494     -0.01071    
C           -107.45177  10.79481    -0.01237    
C           -108.01904  12.21469    -0.01404    
C           -108.58632  13.63456    -0.0157     
C           -109.15359  15.05443    -0.01737    
C           -109.72087  16.4743     -0.01903    
C           -110.28813  17.89418    -0.0207     
C           -110.85541  19.31405    -0.02236    
C           -104.59361  5.35229     1.38521     
C           -104.00454  5.58927     2.77614     
C           -103.41547  5.82625     4.16707     
C           -102.8264   6.06323     5.558       
C           -102.23733  6.3002      6.94893     
C           -101.64826  6.53718     8.33985     
C           -101.05919  6.77416     9.73078     
C           -100.47012  7.01114     11.12171    
C           -98.23316   -6.1204     0.00916     
C           -97.66589   -7.54027    0.01122     
C           -97.09862   -8.96015    0.01327     
C           -96.53136   -10.38002   0.01533     
C           -95.96409   -11.7999    0.01738     
C           -95.39682   -13.21977   0.01943     
C           -94.82956   -14.63965   0.02149     
C           -94.26229   -16.05952   0.02354     
C           -93.69503   -17.4794    0.0256      
C           -93.12776   -18.89927   0.02765     
C           -99.38922   -4.93777    -1.38389    
C           -99.97802   -5.17502    -2.77489    
C           -100.56681  -5.41227    -4.16589    
C           -101.15561  -5.64951    -5.55688    
C           -101.7444   -5.88676    -6.94788    
C           -102.3332   -6.12401    -8.33888    
C           -102.922    -6.36126    -9.72987    
C           -103.51079  -6.59851    -11.12087   
C           -81.73929   0.41559     -0.00046    
N           -82.37148   -0.79159    0.00136     
C           -82.46904   1.61228     -0.00219    
C           -83.68313   -0.7715     0.00141     
C           -84.53629   0.37031     -0.00019    
C           -85.91881   -0.11738    0.00055     
C           -85.79071   -1.63644    0.00269     
N           -84.44004   -1.9347     0.0031      
C           -87.13406   0.53182     -0.00027    
C           -87.26199   2.05127     -0.00198    
N           -88.61231   2.34956     -0.00248    
C           -89.36924   1.186       -0.00115    
C           -89.18498   -1.18205    0.0015      
C           -88.51676   0.04443     0.00023     
C           -83.86848   1.59684     -0.00207    
O           -86.38819   2.90543     -0.00296    
O           -86.66418   -2.49078    0.004       
C           -89.15003   3.69545     -0.00406    
C           -83.90231   -3.28065    0.00505     
H           -84.32205   -3.44978    -0.98657    
C           -83.33504   -4.70052    0.00711     
H           -83.48256   -3.11152    0.99667     
H           -88.73008   3.86438     0.98751     
C           -89.7173    5.11532     -0.00571    
H           -89.56996   3.52651     -0.99563    
H           -91.10725   -2.14273    0.00234     
H           -88.63093   -2.10756    0.00258     
H           -84.4228    2.52216     -0.00336    
H           -81.94732   2.55844     -0.00363    
C           -90.58456   -1.1968     0.00136     
N           -90.68129   1.20648     -0.00128    
C           -91.31293   0.0         -0.0        
C           -77.32691   0.0         -0.0        
C           -77.92186   1.31365     -0.0021     
C           -78.22766   -1.05193    0.00175     
N           -77.26216   2.47682     -0.004      
N           -79.74684   2.77055     -0.00436    
S           -78.38015   3.67582     -0.00588    
H           -80.25917   -1.76868    0.003       
H           -77.82256   -2.0567     0.00337     
C           -79.6309    -0.88612    0.00155     
C           -79.37665   1.48561     -0.0023     
C           -80.26162   0.34686     -0.00041    
C           -90.28457   6.53519     -0.00738    
C           -90.85185   7.95507     -0.00904    
C           -91.41911   9.37494     -0.01071    
C           -91.98639   10.79481    -0.01237    
C           -92.55366   12.21469    -0.01404    
C           -93.12094   13.63456    -0.0157     
C           -93.68821   15.05443    -0.01737    
C           -94.25549   16.4743     -0.01903    
C           -94.82275   17.89418    -0.0207     
C           -95.39002   19.31405    -0.02236    
C           -89.12822   5.35229     1.38521     
C           -88.53915   5.58927     2.77614     
C           -87.95008   5.82625     4.16707     
C           -87.36102   6.06323     5.558       
C           -86.77195   6.3002      6.94893     
C           -86.18288   6.53718     8.33985     
C           -85.59381   6.77416     9.73078     
C           -85.00474   7.01114     11.12171    
C           -82.76777   -6.1204     0.00916     
C           -82.20051   -7.54027    0.01122     
C           -81.63324   -8.96015    0.01327     
C           -81.06597   -10.38002   0.01533     
C           -80.49871   -11.7999    0.01738     
C           -79.93144   -13.21977   0.01943     
C           -79.36418   -14.63965   0.02149     
C           -78.79691   -16.05952   0.02354     
C           -78.22964   -17.4794    0.0256      
C           -77.66238   -18.89927   0.02765     
C           -83.92384   -4.93777    -1.38389    
C           -84.51263   -5.17502    -2.77489    
C           -85.10143   -5.41227    -4.16589    
C           -85.69023   -5.64951    -5.55688    
C           -86.27902   -5.88676    -6.94788    
C           -86.86782   -6.12401    -8.33888    
C           -87.45662   -6.36126    -9.72987    
C           -88.04541   -6.59851    -11.12087   
C           -66.27391   0.41559     -0.00046    
N           -66.9061    -0.79159    0.00136     
C           -67.00366   1.61228     -0.00219    
C           -68.21775   -0.7715     0.00141     
C           -69.07091   0.37031     -0.00019    
C           -70.45343   -0.11738    0.00055     
C           -70.32532   -1.63644    0.00269     
N           -68.97465   -1.9347     0.0031      
C           -71.66868   0.53182     -0.00027    
C           -71.79661   2.05127     -0.00198    
N           -73.14693   2.34956     -0.00248    
C           -73.90385   1.186       -0.00115    
C           -73.7196    -1.18205    0.0015      
C           -73.05138   0.04443     0.00023     
C           -68.4031    1.59684     -0.00207    
O           -70.92281   2.90543     -0.00296    
O           -71.1988    -2.49078    0.004       
C           -73.68464   3.69545     -0.00406    
C           -68.43692   -3.28065    0.00505     
H           -68.85667   -3.44978    -0.98657    
C           -67.86966   -4.70052    0.00711     
H           -68.01718   -3.11152    0.99667     
H           -73.2647    3.86438     0.98751     
C           -74.25191   5.11532     -0.00571    
H           -74.10458   3.52651     -0.99563    
H           -75.64186   -2.14273    0.00234     
H           -73.16555   -2.10756    0.00258     
H           -68.95742   2.52216     -0.00336    
H           -66.48194   2.55844     -0.00363    
C           -75.11918   -1.1968     0.00136     
N           -75.2159    1.20648     -0.00128    
C           -75.84755   0.0         -0.0        
C           -61.86153   0.0         -0.0        
C           -62.45648   1.31365     -0.0021     
C           -62.76228   -1.05193    0.00175     
N           -61.79678   2.47682     -0.004      
N           -64.28146   2.77055     -0.00436    
S           -62.91476   3.67582     -0.00588    
H           -64.79379   -1.76868    0.003       
H           -62.35718   -2.0567     0.00337     
C           -64.16552   -0.88612    0.00155     
C           -63.91127   1.48561     -0.0023     
C           -64.79623   0.34686     -0.00041    
C           -74.81919   6.53519     -0.00738    
C           -75.38647   7.95507     -0.00904    
C           -75.95373   9.37494     -0.01071    
C           -76.521     10.79481    -0.01237    
C           -77.08828   12.21469    -0.01404    
C           -77.65555   13.63456    -0.0157     
C           -78.22283   15.05443    -0.01737    
C           -78.7901    16.4743     -0.01903    
C           -79.35737   17.89418    -0.0207     
C           -79.92464   19.31405    -0.02236    
C           -73.66284   5.35229     1.38521     
C           -73.07377   5.58927     2.77614     
C           -72.4847    5.82625     4.16707     
C           -71.89564   6.06323     5.558       
C           -71.30657   6.3002      6.94893     
C           -70.7175    6.53718     8.33985     
C           -70.12843   6.77416     9.73078     
C           -69.53936   7.01114     11.12171    
C           -67.30239   -6.1204     0.00916     
C           -66.73512   -7.54027    0.01122     
C           -66.16786   -8.96015    0.01327     
C           -65.60059   -10.38002   0.01533     
C           -65.03333   -11.7999    0.01738     
C           -64.46606   -13.21977   0.01943     
C           -63.89879   -14.63965   0.02149     
C           -63.33153   -16.05952   0.02354     
C           -62.76426   -17.4794    0.0256      
C           -62.19699   -18.89927   0.02765     
C           -68.45845   -4.93777    -1.38389    
C           -69.04725   -5.17502    -2.77489    
C           -69.63605   -5.41227    -4.16589    
C           -70.22484   -5.64951    -5.55688    
C           -70.81364   -5.88676    -6.94788    
C           -71.40244   -6.12401    -8.33888    
C           -71.99123   -6.36126    -9.72987    
C           -72.58003   -6.59851    -11.12087   
C           -50.80853   0.41559     -0.00046    
N           -51.44071   -0.79159    0.00136     
C           -51.53828   1.61228     -0.00219    
C           -52.75236   -0.7715     0.00141     
C           -53.60552   0.37031     -0.00019    
C           -54.98804   -0.11738    0.00055     
C           -54.85994   -1.63644    0.00269     
N           -53.50927   -1.9347     0.0031      
C           -56.20329   0.53182     -0.00027    
C           -56.33122   2.05127     -0.00198    
N           -57.68154   2.34956     -0.00248    
C           -58.43847   1.186       -0.00115    
C           -58.25422   -1.18205    0.0015      
C           -57.58599   0.04443     0.00023     
C           -52.93771   1.59684     -0.00207    
O           -55.45743   2.90543     -0.00296    
O           -55.73342   -2.49078    0.004       
C           -58.21926   3.69545     -0.00406    
C           -52.97154   -3.28065    0.00505     
H           -53.39128   -3.44978    -0.98657    
C           -52.40427   -4.70052    0.00711     
H           -52.5518    -3.11152    0.99667     
H           -57.79932   3.86438     0.98751     
C           -58.78653   5.11532     -0.00571    
H           -58.6392    3.52651     -0.99563    
H           -60.17648   -2.14273    0.00234     
H           -57.70017   -2.10756    0.00258     
H           -53.49203   2.52216     -0.00336    
H           -51.01656   2.55844     -0.00363    
C           -59.6538    -1.1968     0.00136     
N           -59.75052   1.20648     -0.00128    
C           -60.38217   0.0         -0.0        
C           -46.39615   0.0         -0.0        
C           -46.99109   1.31365     -0.0021     
C           -47.2969    -1.05193    0.00175     
N           -46.3314    2.47682     -0.004      
N           -48.81608   2.77055     -0.00436    
S           -47.44938   3.67582     -0.00588    
H           -49.32841   -1.76868    0.003       
H           -46.8918    -2.0567     0.00337     
C           -48.70013   -0.88612    0.00155     
C           -48.44589   1.48561     -0.0023     
C           -49.33085   0.34686     -0.00041    
C           -59.35381   6.53519     -0.00738    
C           -59.92108   7.95507     -0.00904    
C           -60.48835   9.37494     -0.01071    
C           -61.05562   10.79481    -0.01237    
C           -61.6229    12.21469    -0.01404    
C           -62.19017   13.63456    -0.0157     
C           -62.75745   15.05443    -0.01737    
C           -63.32472   16.4743     -0.01903    
C           -63.89198   17.89418    -0.0207     
C           -64.45926   19.31405    -0.02236    
C           -58.19746   5.35229     1.38521     
C           -57.60839   5.58927     2.77614     
C           -57.01932   5.82625     4.16707     
C           -56.43026   6.06323     5.558       
C           -55.84118   6.3002      6.94893     
C           -55.25211   6.53718     8.33985     
C           -54.66304   6.77416     9.73078     
C           -54.07397   7.01114     11.12171    
C           -51.83701   -6.1204     0.00916     
C           -51.26974   -7.54027    0.01122     
C           -50.70248   -8.96015    0.01327     
C           -50.13521   -10.38002   0.01533     
C           -49.56794   -11.7999    0.01738     
C           -49.00068   -13.21977   0.01943     
C           -48.43341   -14.63965   0.02149     
C           -47.86614   -16.05952   0.02354     
C           -47.29888   -17.4794    0.0256      
C           -46.73161   -18.89927   0.02765     
C           -52.99307   -4.93777    -1.38389    
C           -53.58187   -5.17502    -2.77489    
C           -54.17066   -5.41227    -4.16589    
C           -54.75946   -5.64951    -5.55688    
C           -55.34826   -5.88676    -6.94788    
C           -55.93705   -6.12401    -8.33888    
C           -56.52585   -6.36126    -9.72987    
C           -57.11465   -6.59851    -11.12087   
C           -35.34315   0.41559     -0.00046    
N           -35.97533   -0.79159    0.00136     
C           -36.07289   1.61228     -0.00219    
C           -37.28698   -0.7715     0.00141     
C           -38.14014   0.37031     -0.00019    
C           -39.52266   -0.11738    0.00055     
C           -39.39456   -1.63644    0.00269     
N           -38.04389   -1.9347     0.0031      
C           -40.73791   0.53182     -0.00027    
C           -40.86584   2.05127     -0.00198    
N           -42.21616   2.34956     -0.00248    
C           -42.97309   1.186       -0.00115    
C           -42.78884   -1.18205    0.0015      
C           -42.12061   0.04443     0.00023     
C           -37.47233   1.59684     -0.00207    
O           -39.99204   2.90543     -0.00296    
O           -40.26804   -2.49078    0.004       
C           -42.75388   3.69545     -0.00406    
C           -37.50616   -3.28065    0.00505     
H           -37.9259    -3.44978    -0.98657    
C           -36.93889   -4.70052    0.00711     
H           -37.08641   -3.11152    0.99667     
H           -42.33394   3.86438     0.98751     
C           -43.32115   5.11532     -0.00571    
H           -43.17382   3.52651     -0.99563    
H           -44.7111    -2.14273    0.00234     
H           -42.23478   -2.10756    0.00258     
H           -38.02665   2.52216     -0.00336    
H           -35.55118   2.55844     -0.00363    
C           -44.18842   -1.1968     0.00136     
N           -44.28514   1.20648     -0.00128    
C           -44.91678   0.0         -0.0        
C           -30.93076   0.0         -0.0        
C           -31.52571   1.31365     -0.0021     
C           -31.83151   -1.05193    0.00175     
N           -30.86601   2.47682     -0.004      
N           -33.3507    2.77055     -0.00436    
S           -31.984     3.67582     -0.00588    
H           -33.86302   -1.76868    0.003       
H           -31.42642   -2.0567     0.00337     
C           -33.23475   -0.88612    0.00155     
C           -32.9805    1.48561     -0.0023     
C           -33.86547   0.34686     -0.00041    
C           -43.88843   6.53519     -0.00738    
C           -44.4557    7.95507     -0.00904    
C           -45.02297   9.37494     -0.01071    
C           -45.59024   10.79481    -0.01237    
C           -46.15751   12.21469    -0.01404    
C           -46.72479   13.63456    -0.0157     
C           -47.29206   15.05443    -0.01737    
C           -47.85934   16.4743     -0.01903    
C           -48.4266    17.89418    -0.0207     
C           -48.99388   19.31405    -0.02236    
C           -42.73208   5.35229     1.38521     
C           -42.14301   5.58927     2.77614     
C           -41.55394   5.82625     4.16707     
C           -40.96487   6.06323     5.558       
C           -40.3758    6.3002      6.94893     
C           -39.78673   6.53718     8.33985     
C           -39.19766   6.77416     9.73078     
C           -38.60859   7.01114     11.12171    
C           -36.37163   -6.1204     0.00916     
C           -35.80436   -7.54027    0.01122     
C           -35.23709   -8.96015    0.01327     
C           -34.66983   -10.38002   0.01533     
C           -34.10256   -11.7999    0.01738     
C           -33.53529   -13.21977   0.01943     
C           -32.96803   -14.63965   0.02149     
C           -32.40076   -16.05952   0.02354     
C           -31.8335    -17.4794    0.0256      
C           -31.26623   -18.89927   0.02765     
C           -37.52769   -4.93777    -1.38389    
C           -38.11649   -5.17502    -2.77489    
C           -38.70528   -5.41227    -4.16589    
C           -39.29408   -5.64951    -5.55688    
C           -39.88287   -5.88676    -6.94788    
C           -40.47167   -6.12401    -8.33888    
C           -41.06047   -6.36126    -9.72987    
C           -41.64926   -6.59851    -11.12087   
C           -19.87776   0.41559     -0.00046    
N           -20.50995   -0.79159    0.00136     
C           -20.60751   1.61228     -0.00219    
C           -21.8216    -0.7715     0.00141     
C           -22.67476   0.37031     -0.00019    
C           -24.05728   -0.11738    0.00055     
C           -23.92918   -1.63644    0.00269     
N           -22.57851   -1.9347     0.0031      
C           -25.27253   0.53182     -0.00027    
C           -25.40046   2.05127     -0.00198    
N           -26.75078   2.34956     -0.00248    
C           -27.50771   1.186       -0.00115    
C           -27.32345   -1.18205    0.0015      
C           -26.65523   0.04443     0.00023     
C           -22.00695   1.59684     -0.00207    
O           -24.52666   2.90543     -0.00296    
O           -24.80265   -2.49078    0.004       
C           -27.2885    3.69545     -0.00406    
C           -22.04078   -3.28065    0.00505     
H           -22.46052   -3.44978    -0.98657    
C           -21.47351   -4.70052    0.00711     
H           -21.62103   -3.11152    0.99667     
H           -26.86855   3.86438     0.98751     
C           -27.85577   5.11532     -0.00571    
H           -27.70843   3.52651     -0.99563    
H           -29.24572   -2.14273    0.00234     
H           -26.7694    -2.10756    0.00258     
H           -22.56127   2.52216     -0.00336    
H           -20.08579   2.55844     -0.00363    
C           -28.72303   -1.1968     0.00136     
N           -28.81976   1.20648     -0.00128    
C           -29.4514    0.0         -0.0        
C           -15.46538   0.0         -0.0        
C           -16.06033   1.31365     -0.0021     
C           -16.36613   -1.05193    0.00175     
N           -15.40063   2.47682     -0.004      
N           -17.88531   2.77055     -0.00436    
S           -16.51862   3.67582     -0.00588    
H           -18.39764   -1.76868    0.003       
H           -15.96104   -2.0567     0.00337     
C           -17.76937   -0.88612    0.00155     
C           -17.51512   1.48561     -0.0023     
C           -18.40009   0.34686     -0.00041    
C           -28.42304   6.53519     -0.00738    
C           -28.99032   7.95507     -0.00904    
C           -29.55758   9.37494     -0.01071    
C           -30.12486   10.79481    -0.01237    
C           -30.69213   12.21469    -0.01404    
C           -31.25941   13.63456    -0.0157     
C           -31.82668   15.05443    -0.01737    
C           -32.39396   16.4743     -0.01903    
C           -32.96122   17.89418    -0.0207     
C           -33.5285    19.31405    -0.02236    
C           -27.26669   5.35229     1.38521     
C           -26.67762   5.58927     2.77614     
C           -26.08855   5.82625     4.16707     
C           -25.49949   6.06323     5.558       
C           -24.91042   6.3002      6.94893     
C           -24.32135   6.53718     8.33985     
C           -23.73228   6.77416     9.73078     
C           -23.14321   7.01114     11.12171    
C           -20.90624   -6.1204     0.00916     
C           -20.33898   -7.54027    0.01122     
C           -19.77171   -8.96015    0.01327     
C           -19.20444   -10.38002   0.01533     
C           -18.63718   -11.7999    0.01738     
C           -18.06991   -13.21977   0.01943     
C           -17.50265   -14.63965   0.02149     
C           -16.93538   -16.05952   0.02354     
C           -16.36811   -17.4794    0.0256      
C           -15.80085   -18.89927   0.02765     
C           -22.06231   -4.93777    -1.38389    
C           -22.6511    -5.17502    -2.77489    
C           -23.2399    -5.41227    -4.16589    
C           -23.8287    -5.64951    -5.55688    
C           -24.41749   -5.88676    -6.94788    
C           -25.00629   -6.12401    -8.33888    
C           -25.59509   -6.36126    -9.72987    
C           -26.18388   -6.59851    -11.12087   
C           -4.41238    0.41559     -0.00046    
N           -5.04457    -0.79159    0.00136     
C           -5.14213    1.61228     -0.00219    
C           -6.35622    -0.7715     0.00141     
C           -7.20938    0.37031     -0.00019    
C           -8.5919     -0.11738    0.00055     
C           -8.46379    -1.63644    0.00269     
N           -7.11312    -1.9347     0.0031      
C           -9.80715    0.53182     -0.00027    
C           -9.93508    2.05127     -0.00198    
N           -11.2854    2.34956     -0.00248    
C           -12.04232   1.186       -0.00115    
C           -11.85807   -1.18205    0.0015      
C           -11.18985   0.04443     0.00023     
C           -6.54157    1.59684     -0.00207    
O           -9.06128    2.90543     -0.00296    
O           -9.33727    -2.49078    0.004       
C           -11.82311   3.69545     -0.00406    
C           -6.57539    -3.28065    0.00505     
H           -6.99514    -3.44978    -0.98657    
C           -6.00813    -4.70052    0.00711     
H           -6.15565    -3.11152    0.99667     
H           -11.40317   3.86438     0.98751     
C           -12.39039   5.11532     -0.00571    
H           -12.24305   3.52651     -0.99563    
H           -13.78033   -2.14273    0.00234     
H           -11.30402   -2.10756    0.00258     
H           -7.09589    2.52216     -0.00336    
H           -4.62041    2.55844     -0.00363    
C           -13.25765   -1.1968     0.00136     
N           -13.35437   1.20648     -0.00128    
C           -13.98602   0.0         -0.0        
C           0.0         0.0         0.0         
C           -0.59495    1.31365     -0.0021     
C           -0.90075    -1.05193    0.00175     
N           0.06475     2.47682     -0.004      
N           -2.41993    2.77055     -0.00436    
S           -1.05323    3.67582     -0.00588    
H           -2.93226    -1.76868    0.003       
H           -0.49565    -2.0567     0.00337     
C           -2.30399    -0.88612    0.00155     
C           -2.04974    1.48561     -0.0023     
C           -2.9347     0.34686     -0.00041    
C           -12.95766   6.53519     -0.00738    
C           -13.52494   7.95507     -0.00904    
C           -14.0922    9.37494     -0.01071    
C           -14.65947   10.79481    -0.01237    
C           -15.22675   12.21469    -0.01404    
C           -15.79402   13.63456    -0.0157     
C           -16.3613    15.05443    -0.01737    
C           -16.92857   16.4743     -0.01903    
C           -17.49584   17.89418    -0.0207     
C           -18.06311   19.31405    -0.02236    
C           -11.80131   5.35229     1.38521     
C           -11.21224   5.58927     2.77614     
C           -10.62317   5.82625     4.16707     
C           -10.03411   6.06323     5.558       
C           -9.44504    6.3002      6.94893     
C           -8.85597    6.53718     8.33985     
C           -8.2669     6.77416     9.73078     
C           -7.67783    7.01114     11.12171    
C           -5.44086    -6.1204     0.00916     
C           -4.87359    -7.54027    0.01122     
C           -4.30633    -8.96015    0.01327     
C           -3.73906    -10.38002   0.01533     
C           -3.1718     -11.7999    0.01738     
C           -2.60453    -13.21977   0.01943     
C           -2.03726    -14.63965   0.02149     
C           -1.47       -16.05952   0.02354     
C           -0.90273    -17.4794    0.0256      
C           -0.33546    -18.89927   0.02765     
C           -6.59692    -4.93777    -1.38389    
C           -7.18572    -5.17502    -2.77489    
C           -7.77452    -5.41227    -4.16589    
C           -8.36331    -5.64951    -5.55688    
C           -8.95211    -5.88676    -6.94788    
C           -9.54091    -6.12401    -8.33888    
C           -10.1297    -6.36126    -9.72987    
C           -10.7185    -6.59851    -11.12087   
H           -154.26446  0.0         -0.0        
H           1.09        0.0         0.0         
