83

C           -4.42793    0.12765     -0.07126    
C           -5.17813    -0.64925    -0.97171    
C           -5.13167    0.96567     0.80511     
C           -6.51316    1.04837     0.75709     
C           -7.26367    0.29057     -0.17839    
C           -6.56645    -0.57559    -1.03497    
N           -7.35732    1.79218     1.57713     
C           -8.67969    1.54493     1.25289     
C           -8.68251    0.56655     0.08671     
O           -9.61843    2.09232     1.81349     
C           -6.97285    2.72634     2.62355     
C           -9.835      0.13486     -0.53173    
C           -11.2518    0.23881     -0.15446    
C           -12.00323   -0.36716    -1.19426    
N           -11.16288   -0.81293    -2.21089    
C           -9.84052    -0.56507    -1.88177    
C           -11.94869   0.7052      0.96964     
O           -8.90654    -0.84169    -2.62083    
C           -11.54607   -1.43657    -3.46767    
H           -7.10423    -1.16646    -1.7588     
F           -4.45894    1.68013     1.73866     
H           -4.65303    -1.31738    -1.64378    
F           -14.04563   -1.05858    -2.14904    
H           -11.41271   1.17178     1.78039     
H           -13.85278   0.96909     1.90171     
H           -7.27853    2.00415     3.38059     
H           -6.66718    3.44854     1.86651     
C           -6.56868    3.70839     3.72359     
H           -11.0779    -0.61913    -4.01604    
C           -11.94893   -2.09219    -4.78893    
H           -12.01425   -2.254      -2.9193     
C           -13.33459   0.58937     1.03087     
C           -13.38083   -0.47877    -1.11434    
C           -14.09068   0.0         -0.0        
C           0.0         0.0         0.0         
C           -0.77401    -1.21712    -0.00384    
C           -0.73175    1.16975     -0.00795    
N           -0.28164    -2.45874    0.03612     
N           -2.7946     -2.38999    0.00234     
S           -1.56645    -3.48038    0.04328     
F           -2.71282    2.40207     -0.09106    
H           -0.24027    2.13399     -0.01758    
C           -2.14903    1.18179     -0.03257    
C           -2.23137    -1.17813    -0.02152    
C           -2.95296    0.06373     -0.03504    
C           -6.1645     4.69043     4.82362     
C           -5.76034    5.67247     5.92366     
C           -5.35616    6.65452     7.02369     
C           -4.95198    7.63656     8.12372     
C           -4.54781    8.61859     9.22376     
C           -4.14363    9.60064     10.3238     
C           -3.73947    10.58268    11.42383    
C           -3.33529    11.56473    12.52387    
C           -2.93112    12.54677    13.6239     
C           -2.52695    13.52881    14.72394    
C           -6.99746    2.69533     4.78552     
C           -7.42625    1.68227     5.84745     
C           -7.85503    0.66922     6.90939     
C           -8.28381    -0.34383    7.97132     
C           -8.7126     -1.35689    9.03326     
C           -9.14137    -2.36995    10.09519    
C           -9.57016    -3.38299    11.15713    
C           -9.99894    -4.39606    12.21906    
C           -12.35178   -2.74782    -6.11018    
C           -12.75463   -3.40344    -7.43143    
C           -13.15748   -4.05906    -8.75268    
C           -13.56033   -4.71469    -10.07394   
C           -13.96318   -5.37031    -11.39519   
C           -14.36603   -6.02594    -12.71644   
C           -14.76888   -6.68156    -14.0377    
C           -15.17173   -7.33719    -15.35895   
C           -15.57458   -7.99281    -16.6802    
C           -15.97743   -8.64844    -18.00145   
C           -11.2922    -0.94553    -5.55815    
C           -10.63547   0.20114     -6.32738    
C           -9.97874    1.3478      -7.09661    
C           -9.32202    2.49447     -7.86584    
C           -8.66529    3.64113     -8.63507    
C           -8.00856    4.78779     -9.40429    
C           -7.35183    5.93446     -10.17352   
C           -6.69511    7.08112     -10.94275   
H           -15.18068   0.0         -0.0        
H           1.09        0.0         0.0         
