87

C           -14.50707   -0.32521    0.00296     
C           -14.82929   -1.70797    0.01473     
N           -15.45877   0.63187     -0.00523    
C           -16.15491   -2.10407    0.01805     
C           -17.16104   -1.12156    0.00964     
C           -16.71512   0.22686     -0.00183    
H           -14.03491   -2.44753    0.02105     
H           -16.4113    -3.16002    0.02704     
H           -19.11427   -2.16527    0.01846     
S           -18.07318   1.35446     -0.01151    
C           -18.5823    -1.21945    0.01042     
C           -19.21749   -0.0        0.0         
C           -9.66466    -0.65396    0.00579     
C           -10.81693   0.13357     -0.00086    
N           -10.08398   -1.98249    0.01702     
C           -11.51397   -2.08129    0.01788     
C           -11.25832   1.51275     -0.01255    
O           -10.65432   2.58345     -0.02164    
O           -12.09718   -3.16173    0.02703     
C           -13.47408   2.65161     -0.02223    
C           -9.28574    -3.19719    0.02731     
C           -8.44605    -4.47494    0.03812     
H           -9.8321     -3.54882    0.90248     
H           -8.73937    -2.84555    -0.84787    
H           -12.93046   2.99241     -0.90338    
C           -14.29885   3.93903     -0.03313    
H           -14.0177    2.3108      0.85892     
N           -12.68687   1.42281     -0.01182    
C           -11.96459   -0.70137    0.00621     
C           -13.10995   0.09833     -0.00059    
C           -3.7779     1.17407     -0.00981    
C           -4.39859    2.45056     -0.02058    
N           -4.48518    0.02721     -0.00011    
C           -5.77806    2.54053     -0.0213     
C           -6.53825    1.35435     -0.01126    
C           -5.80318    0.13965     -0.00102    
H           -3.78726    3.34352     -0.02814    
H           -6.27019    3.50894     -0.02946    
H           -8.68438    1.9392      -0.01615    
S           -6.87283    -1.25576    0.0108      
C           -7.94309    1.14466     -0.00945    
C           -8.30072    -0.19057    0.00184     
C           0.0         0.0         0.0         
C           -0.02097    1.37564     -0.01162    
S           -1.65141    -0.6071     0.00517     
F           -1.4914     3.26822     -0.02757    
F           1.07323     2.14987     -0.0182     
C           -1.3184     1.93771     -0.01633    
C           -2.33324    1.00992     -0.00847    
C           -7.60638    -5.7527     0.04894     
C           -6.7667     -7.03045    0.05976     
C           -5.92702    -8.30821    0.07057     
C           -5.08734    -9.58596    0.0814      
C           -4.24767    -10.86373   0.09221     
C           -3.40798    -12.14148   0.10303     
C           -2.5683     -13.41923   0.11385     
C           -1.72862    -14.69699   0.12466     
C           -0.88894    -15.97475   0.13549     
C           -0.04927    -17.2525    0.1463      
C           -9.21248    -4.96819    1.26578     
C           -9.97889    -5.46146    2.49344     
C           -10.7453    -5.95471    3.7211      
C           -11.51172   -6.44796    4.94876     
C           -12.27814   -6.94123    6.17642     
C           -13.04455   -7.43448    7.40407     
C           -13.81096   -7.92773    8.63174     
C           -14.57738   -8.421      9.8594      
C           -15.12363   5.22646     -0.04403    
C           -15.9484    6.51389     -0.05493    
C           -16.77318   7.80132     -0.06583    
C           -17.59795   9.08874     -0.07673    
C           -18.42273   10.37617    -0.08763    
C           -19.2475    11.6636     -0.09853    
C           -20.07228   12.95102    -0.10943    
C           -20.89705   14.23845    -0.12033    
C           -21.72183   15.52588    -0.13123    
C           -22.5466    16.81331    -0.14213    
C           -13.53629   4.4171      -1.26916    
C           -12.77372   4.89517     -2.5052     
C           -12.01115   5.37323     -3.74123    
C           -11.24858   5.8513      -4.97727    
C           -10.48601   6.32936     -6.2133     
C           -9.72344    6.80743     -7.44934    
C           -8.96087    7.2855      -8.68537    
C           -8.1983     7.76356     -9.92141    
H           -20.30749   -0.0        0.0         
H           1.09        0.0         0.0         
