93

C           -4.39867    -0.38741    -0.00031    
C           -5.26425    0.68006     0.00076     
S           -5.25273    -1.95099    -0.00186    
C           -6.79408    -1.12166    -0.00105    
C           -6.64082    0.30634     0.00037     
C           -7.79054    1.11966     0.00119     
C           -9.07626    0.52174     0.00059     
C           -9.21566    -0.90908    -0.00086    
C           -8.04882    -1.71839    -0.00166    
C           -10.24222   1.33345     0.00139     
C           -11.49636   0.73486     0.00077     
C           -11.65022   -0.69469    -0.00067    
C           -10.50115   -1.50951    -0.00148    
C           -10.63168   -2.9881     -0.00297    
N           -9.43978    -3.7314     -0.00373    
C           -8.15868    -3.1872     -0.00314    
C           -7.66467    2.59649     0.00267     
N           -8.84916    3.34368     0.00352     
C           -10.13666   2.8051      0.00288     
O           -11.712     -3.56888    -0.00354    
O           -7.17387    -3.9206     -0.00384    
O           -6.59155    3.19158     0.0032      
O           -11.13023   3.52566     0.00357     
H           -13.32849   -2.1016     -0.00208    
H           -4.96561    1.7163      0.0018      
C           -9.52036    -5.19738    -0.00523    
C           -8.69703    4.80378     0.00504     
H           -9.62728    -5.1926     1.07951     
C           -9.60428    -6.72407    -0.00679    
H           -9.41345    -5.20215    -1.08996    
H           -8.7508     4.80825     1.0937      
H           -8.64326    4.79931     -1.08363    
C           -8.53858    6.32455     0.00662     
S           -13.03872   1.56264     0.00159     
C           -13.02806   -1.0663     -0.00106    
C           -13.89222   0.0         0.0         
C           0.0         0.0         0.0         
C           -0.62598    -1.29441    -0.00111    
C           -0.88439    1.07428     0.00093     
N           0.01718     -2.46463    -0.00211    
N           -2.47359    -2.71227    -0.00232    
S           -1.12346    -3.64343    -0.00317    
H           -2.8724     1.84751     0.00158     
H           -0.49061    2.08433     0.00178     
C           -2.28731    0.93489     0.0008      
C           -2.0735     -1.43834    -0.00123    
C           -2.94266    -0.29269    -0.00025    
C           -9.68822    -8.25077    -0.00834    
C           -9.77214    -9.77746    -0.00991    
C           -9.85606    -11.30415   -0.01146    
C           -9.93999    -12.83085   -0.01302    
C           -10.02391   -14.35755   -0.01457    
C           -10.10784   -15.88424   -0.01614    
C           -10.19176   -17.41093   -0.0177     
C           -10.27569   -18.93762   -0.01925    
C           -10.35961   -20.46433   -0.02081    
C           -10.44354   -21.99102   -0.02237    
C           -10.52747   -23.51771   -0.02393    
C           -10.61139   -25.0444    -0.02548    
C           -9.75427    -6.71738    1.51483     
C           -9.90425    -6.71069    3.03644     
C           -10.05424   -6.704      4.55805     
C           -10.20422   -6.69731    6.07966     
C           -10.3542    -6.69061    7.60127     
C           -10.50419   -6.68392    9.12288     
C           -10.65417   -6.67723    10.64449    
C           -10.80415   -6.67053    12.1661     
C           -10.95414   -6.66385    13.68772    
C           -11.10412   -6.65716    15.20933    
C           -8.38013    7.84532     0.0082      
C           -8.22168    9.36608     0.00979     
C           -8.06323    10.88685    0.01137     
C           -7.90478    12.40762    0.01295     
C           -7.74633    13.92839    0.01454     
C           -7.58788    15.44915    0.01612     
C           -7.42943    16.96992    0.0177      
C           -7.27098    18.49069    0.01929     
C           -7.11253    20.01145    0.02087     
C           -6.95408    21.53222    0.02245     
C           -6.79563    23.05299    0.02404     
C           -6.63718    24.57375    0.02562     
C           -8.46315    6.31828     -1.52051    
C           -8.38773    6.31201     -3.04763    
C           -8.3123     6.30574     -4.57476    
C           -8.23687    6.29948     -6.10188    
C           -8.16144    6.29321     -7.62901    
C           -8.08602    6.28694     -9.15613    
C           -8.01059    6.28067     -10.68326   
C           -7.93516    6.2744      -12.21039   
C           -7.85973    6.26813     -13.73751   
C           -7.78431    6.26186     -15.26464   
H           -14.98222   0.0         0.0         
H           1.09        0.0         0.0         
