107

C           -4.38894    0.60703     -0.00022    
C           -5.10302    1.79903     -0.00071    
S           -5.49168    -0.78698    0.00037     
C           -10.50232   -0.82396    0.00038     
C           -11.04513   0.4899      -0.00018    
C           -10.2191    1.62399     -0.00065    
C           -8.84595    1.43073     -0.00056    
C           -8.30265    0.11646     0.0         
C           -9.12882    -1.01742    0.00047     
C           -11.61461   -1.88297    0.00081     
C           -12.84888   -0.99379    0.00044     
C           -12.48406   0.33816     -0.00012    
C           -7.73318    2.48917     -0.001      
C           -6.49906    1.59969     -0.00063    
C           -6.8643     0.26779     -6e-05      
C           -11.55216   -2.76637    -1.26553    
C           -11.55218   -2.76531    1.26791     
C           -7.79506    3.37152     -1.26807    
C           -7.79505    3.37258     1.26534     
H           -14.74245   -2.15375    0.0009      
H           -4.60676    2.76135     -0.00113    
H           -10.64844   2.62301     -0.00107    
H           -8.69954    -2.01643    0.0009      
H           -11.37242   -1.8805     -1.87465    
H           -11.73189   -3.65225    -0.65641    
C           -11.49037   -3.64046    -2.51853    
C           -11.49041   -3.63834    2.52164     
H           -11.78481   -1.89683    1.88413     
H           -11.31955   -3.63378    0.65168     
H           -7.61559    4.25789     -0.65959    
H           -7.97452    2.48516     -1.87654    
C           -7.85628    4.24459     -2.5218     
C           -7.85628    4.24669     2.51834     
H           -8.02796    4.24053     0.64847     
H           -7.56216    2.50464     1.88221     
S           -13.8557    1.39302     -0.00058    
C           -14.24548   -1.19159    0.0005      
C           -14.95781   -0.0        0.0         
C           0.0         0.0         0.0         
C           -0.59492    1.31558     -0.00065    
C           -0.93391    -1.02829    0.00054     
N           -0.01093    2.49978     -0.00125    
N           -2.26284    2.81325     -0.00134    
O           -1.03211    3.40687     -0.00171    
H           -2.95464    -1.72618    0.00096     
H           -0.58382    -2.05648    0.00105     
C           -2.33699    -0.83259    0.00048     
C           -2.02419    1.51449     -0.00072    
C           -2.95457    0.41125     -0.00014    
C           -11.42864   -4.51137    3.77537     
C           -11.36687   -5.3844     5.02911     
C           -11.3051    -6.25744    6.28283     
C           -11.24333   -7.13046    7.53656     
C           -11.18156   -8.0035     8.79029     
C           -11.11979   -8.87652    10.04402    
C           -11.05802   -9.74955    11.29775    
C           -10.99625   -10.62259   12.55148    
C           -10.93448   -11.49562   13.80522    
C           -10.87271   -12.36864   15.05895    
C           -10.81094   -13.24168   16.31268    
C           -10.74917   -14.11471   17.56641    
C           -10.6874    -14.98774   18.82014    
C           -10.62563   -15.86077   20.07387    
C           -7.91751    5.1208      3.77135     
C           -7.97874    5.99492     5.02435     
C           -8.03996    6.86902     6.27736     
C           -8.10119    7.74312     7.53037     
C           -8.16241    8.61724     8.78337     
C           -8.22364    9.49135     10.03638    
C           -8.28486    10.36546    11.28938    
C           -8.34609    11.23957    12.54239    
C           -8.40732    12.11367    13.7954     
C           -8.46855    12.98779    15.0484     
C           -8.52976    13.8619     16.30142    
C           -8.59099    14.73601    17.55442    
C           -8.65222    15.61011    18.80742    
C           -8.71345    16.48422    20.06043    
C           -11.42858   -4.51454    -3.77153    
C           -11.36678   -5.38863    -5.02453    
C           -11.30499   -6.26271    -6.27752    
C           -11.2432    -7.13679    -7.53051    
C           -11.18141   -8.01088    -8.78351    
C           -11.11962   -8.88496    -10.0365    
C           -11.05782   -9.75904    -11.2895    
C           -10.99603   -10.63313   -12.5425    
C           -10.93424   -11.50721   -13.79549   
C           -10.87245   -12.3813    -15.04849   
C           -10.81066   -13.25538   -16.30149   
C           -10.74886   -14.12947   -17.55448   
C           -10.68707   -15.00356   -18.80748   
C           -10.62528   -15.87764   -20.06047   
C           -7.91751    5.11765     -3.77554    
C           -7.97873    5.99072     -5.02927    
C           -8.03995    6.86378     -6.283      
C           -8.10118    7.73685     -7.53674    
C           -8.1624     8.60992     -8.79047    
C           -8.22363    9.48298     -10.04421   
C           -8.28485    10.35605    -11.29794   
C           -8.34607    11.22911    -12.55167   
C           -8.4073     12.10218    -13.80541   
C           -8.46852    12.97524    -15.05914   
C           -8.52975    13.84831    -16.31288   
C           -8.59097    14.72138    -17.56661   
C           -8.6522     15.59444    -18.82034   
C           -8.71342    16.46751    -20.07408   
H           -16.04781   -0.0        0.0         
H           1.09        0.0         0.0         
