792

C           -143.6964   -0.09048    0.16636     
N           -144.34257  0.79476     -0.62927    
C           -144.38647  -1.00164    0.97674     
C           -145.65665  0.75733     -0.58493    
C           -146.47792  -0.10277    0.19709     
C           -147.87304  0.23642     -0.10522    
C           -147.78109  1.36824     -1.12594    
N           -146.43979  1.60892     -1.3502     
C           -149.07072  -0.26489    0.35216     
C           -149.1631   -1.36419    1.40458     
N           -150.50621  -1.61525    1.6194      
C           -151.28995  -0.79749    0.81813     
C           -151.16013  0.9125      -0.82667    
C           -150.46548  0.0513      0.02424     
C           -145.78417  -1.01276    1.0002      
O           -148.26986  -1.95248    1.99526     
O           -148.67687  1.99422     -1.67273    
C           -151.01258  -2.59826    2.55709     
C           -145.92512  2.62602     -2.24787    
H           -146.412    2.13088     -3.08804    
C           -145.38276  3.69785     -3.19384    
H           -145.43824  3.12116     -1.4077     
H           -150.50124  -2.0849     3.3714      
C           -151.54659  -3.63497    3.546       
H           -151.52391  -3.11163    1.74279     
H           -153.1053   1.5457      -1.48971    
H           -150.6269   1.59615     -1.4685     
H           -146.31797  -1.70469    1.63261     
H           -143.83759  -1.69702    1.59903     
C           -152.56039  0.88128     -0.83415    
N           -152.60116  -0.85019    0.83571     
C           -153.25805  0.0         -0.0        
C           -139.26472  0.0         -0.0        
C           -140.0252   1.22722     0.00525     
C           -140.0093   -1.15956    0.08399     
N           -139.52917  2.46779     -0.02442    
N           -142.03632  2.41653     0.10221     
S           -140.80643  3.49801     0.03756     
F           -141.98972  -2.38342    0.21417     
H           -139.50094  -2.11564    0.08418     
C           -141.41992  -1.16089    0.15484     
C           -141.48556  1.19998     0.07056     
C           -142.21849  -0.03718    0.13747     
C           -152.08061  -4.67167    4.53489     
C           -152.61463  -5.70837    5.52379     
C           -153.14864  -6.74507    6.51268     
C           -153.68265  -7.78177    7.50159     
C           -154.21666  -8.81847    8.49048     
C           -154.75068  -9.85517    9.47938     
C           -155.2847   -10.89187   10.46827    
C           -155.81871  -11.92857   11.45718    
C           -156.35273  -12.96527   12.44608    
C           -156.88675  -14.00197   13.43498    
C           -150.82931  -2.91485    4.68826     
C           -150.11203  -2.19473    5.83053     
C           -149.39475  -1.47461    6.9728      
C           -148.67746  -0.75449    8.11506     
C           -147.96018  -0.03437    9.25733     
C           -147.2429   0.68575     10.3996     
C           -146.52562  1.40586     11.54187    
C           -145.80834  2.12599     12.68414    
C           -144.84039  4.76968     -4.13982    
C           -144.29803  5.8415      -5.08579    
C           -143.75567  6.91333     -6.03176    
C           -143.2133   7.98516     -6.97774    
C           -142.67094  9.05699     -7.92371    
C           -142.12857  10.12882    -8.86968    
C           -141.58621  11.20065    -9.81566    
C           -141.04384  12.27247    -10.76163   
C           -140.50148  13.3443     -11.70761   
C           -139.95912  14.41613    -12.65358   
C           -146.06573  3.00328     -4.37239    
C           -146.74871  2.30872     -5.55093    
C           -147.43168  1.61416     -6.72948    
C           -148.11465  0.91959     -7.90802    
C           -148.79763  0.22503     -9.08657    
C           -149.4806   -0.46953    -10.26512   
C           -150.16357  -1.1641     -11.44366   
C           -150.84655  -1.85866    -12.62221   
C           -128.22254  -0.09075    0.16622     
N           -128.86871  0.79577     -0.62798    
C           -128.91261  -1.00322    0.97513     
C           -130.1828   0.75827     -0.58371    
C           -131.00406  -0.10308    0.19692     
C           -132.39918  0.23659     -0.10484    
C           -132.30723  1.37005     -1.12374    
N           -130.96594  1.61109     -1.3476     
C           -133.59686  -0.26546    0.35173     
C           -133.68924  -1.36645    1.40238     
N           -135.03235  -1.61786    1.6168      
C           -135.8161   -0.79881    0.81684     
C           -135.68627  0.91383     -0.8252     
C           -134.99162  0.05126     0.02432     
C           -130.31032  -1.01437    0.99857     
O           -132.796    -1.9557     1.99211     
O           -133.20302  1.99691     -1.66952    
C           -135.53872  -2.60238    2.5529      
C           -130.45127  2.62964     -2.24364    
H           -130.93815  2.13585     -3.0846     
C           -129.9089   3.70299     -3.18788    
H           -129.96438  3.12343     -1.40267    
H           -135.02738  -2.09033    3.36804     
C           -136.07273  -3.64067    3.54014     
H           -136.05005  -3.11443    1.73777     
H           -137.63144  1.5481      -1.48721    
H           -135.15304  1.59851     -1.46593    
H           -130.84412  -1.70731    1.62986     
H           -128.36373  -1.69959    1.5963      
C           -137.08654  0.88263     -0.83273    
N           -137.12731  -0.85154    0.83434     
C           -137.78419  0.0         -0.0        
C           -123.79086  0.0         -0.0        
C           -124.55134  1.22721     0.00722     
C           -124.53544  -1.15969    0.08212     
N           -124.05531  2.46782     -0.02044    
N           -126.56247  2.41636     0.1061      
S           -125.33257  3.49794     0.04319     
F           -126.51586  -2.38376    0.21034     
H           -124.02708  -2.11578    0.08077     
C           -125.94606  -1.16114    0.15297     
C           -126.01171  1.19987     0.07249     
C           -126.74463  -0.0374     0.13741     
C           -136.60675  -4.67897    4.52736     
C           -137.14077  -5.71726    5.51459     
C           -137.67479  -6.75555    6.50181     
C           -138.20879  -7.79384    7.48904     
C           -138.74281  -8.83213    8.47627     
C           -139.27682  -9.87043    9.46349     
C           -139.81084  -10.90872   10.45072    
C           -140.34485  -11.947     11.43795    
C           -140.87888  -12.9853    12.42518    
C           -141.41289  -14.0236    13.41241    
C           -135.35546  -2.92239    4.68356     
C           -134.63817  -2.20412    5.82699     
C           -133.92089  -1.48584    6.97041     
C           -133.2036   -0.76756    8.11384     
C           -132.48632  -0.04928    9.25726     
C           -131.76905  0.669       10.40069    
C           -131.05176  1.38727     11.54412    
C           -130.33448  2.10555     12.68755    
C           -129.36654  4.77634     -4.13213    
C           -128.82417  5.84969     -5.07637    
C           -128.28181  6.92304     -6.02062    
C           -127.73944  7.99639     -6.96487    
C           -127.19708  9.06974     -7.90911    
C           -126.65472  10.14309    -8.85336    
C           -126.11235  11.21644    -9.7976     
C           -125.56999  12.28979    -10.74185   
C           -125.02762  13.36314    -11.6861    
C           -124.48526  14.43649    -12.63034   
C           -130.59187  3.01032     -4.36754    
C           -131.27485  2.31766     -5.54721    
C           -131.95782  1.625       -6.72687    
C           -132.6408   0.93233     -7.90653    
C           -133.32377  0.23967     -9.0862     
C           -134.00674  -0.453      -10.26586   
C           -134.68972  -1.14566    -11.44552   
C           -135.37269  -1.83832    -12.62518   
C           -112.74868  -0.09075    0.16622     
N           -113.39485  0.79577     -0.62798    
C           -113.43875  -1.00322    0.97513     
C           -114.70894  0.75827     -0.58371    
C           -115.5302   -0.10308    0.19692     
C           -116.92532  0.23659     -0.10484    
C           -116.83338  1.37005     -1.12374    
N           -115.49208  1.61109     -1.3476     
C           -118.123    -0.26546    0.35173     
C           -118.21538  -1.36645    1.40238     
N           -119.5585   -1.61786    1.6168      
C           -120.34224  -0.79881    0.81684     
C           -120.21241  0.91383     -0.8252     
C           -119.51776  0.05126     0.02432     
C           -114.83646  -1.01437    0.99857     
O           -117.32215  -1.9557     1.99211     
O           -117.72916  1.99691     -1.66952    
C           -120.06486  -2.60238    2.5529      
C           -114.97741  2.62964     -2.24364    
H           -115.46429  2.13585     -3.0846     
C           -114.43504  3.70299     -3.18788    
H           -114.49053  3.12343     -1.40267    
H           -119.55353  -2.09033    3.36804     
C           -120.59888  -3.64067    3.54014     
H           -120.57619  -3.11443    1.73777     
H           -122.15759  1.5481      -1.48721    
H           -119.67919  1.59851     -1.46593    
H           -115.37026  -1.70731    1.62986     
H           -112.88987  -1.69959    1.5963      
C           -121.61268  0.88263     -0.83273    
N           -121.65345  -0.85154    0.83434     
C           -122.31033  0.0         -0.0        
C           -108.317    0.0         -0.0        
C           -109.07749  1.22721     0.00722     
C           -109.06158  -1.15969    0.08212     
N           -108.58145  2.46782     -0.02044    
N           -111.08861  2.41636     0.1061      
S           -109.85872  3.49794     0.04319     
F           -111.042    -2.38376    0.21034     
H           -108.55322  -2.11578    0.08077     
C           -110.4722   -1.16114    0.15297     
C           -110.53785  1.19987     0.07249     
C           -111.27078  -0.0374     0.13741     
C           -121.13289  -4.67897    4.52736     
C           -121.66691  -5.71726    5.51459     
C           -122.20093  -6.75555    6.50181     
C           -122.73493  -7.79384    7.48904     
C           -123.26895  -8.83213    8.47627     
C           -123.80297  -9.87043    9.46349     
C           -124.33698  -10.90872   10.45072    
C           -124.871    -11.947     11.43795    
C           -125.40502  -12.9853    12.42518    
C           -125.93904  -14.0236    13.41241    
C           -119.8816   -2.92239    4.68356     
C           -119.16431  -2.20412    5.82699     
C           -118.44703  -1.48584    6.97041     
C           -117.72975  -0.76756    8.11384     
C           -117.01247  -0.04928    9.25726     
C           -116.29519  0.669       10.40069    
C           -115.57791  1.38727     11.54412    
C           -114.86062  2.10555     12.68755    
C           -113.89268  4.77634     -4.13213    
C           -113.35032  5.84969     -5.07637    
C           -112.80795  6.92304     -6.02062    
C           -112.26559  7.99639     -6.96487    
C           -111.72322  9.06974     -7.90911    
C           -111.18086  10.14309    -8.85336    
C           -110.63849  11.21644    -9.7976     
C           -110.09613  12.28979    -10.74185   
C           -109.55377  13.36314    -11.6861    
C           -109.0114   14.43649    -12.63034   
C           -115.11802  3.01032     -4.36754    
C           -115.80099  2.31766     -5.54721    
C           -116.48396  1.625       -6.72687    
C           -117.16694  0.93233     -7.90653    
C           -117.84991  0.23967     -9.0862     
C           -118.53289  -0.453      -10.26586   
C           -119.21586  -1.14566    -11.44552   
C           -119.89883  -1.83832    -12.62518   
C           -97.27482   -0.09075    0.16622     
N           -97.921     0.79577     -0.62798    
C           -97.96489   -1.00322    0.97513     
C           -99.23508   0.75827     -0.58371    
C           -100.05635  -0.10308    0.19692     
C           -101.45147  0.23659     -0.10484    
C           -101.35952  1.37005     -1.12374    
N           -100.01822  1.61109     -1.3476     
C           -102.64914  -0.26546    0.35173     
C           -102.74152  -1.36645    1.40238     
N           -104.08464  -1.61786    1.6168      
C           -104.86838  -0.79881    0.81684     
C           -104.73856  0.91383     -0.8252     
C           -104.04391  0.05126     0.02432     
C           -99.3626    -1.01437    0.99857     
O           -101.84829  -1.9557     1.99211     
O           -102.2553   1.99691     -1.66952    
C           -104.591    -2.60238    2.5529      
C           -99.50355   2.62964     -2.24364    
H           -99.99043   2.13585     -3.0846     
C           -98.96119   3.70299     -3.18788    
H           -99.01667   3.12343     -1.40267    
H           -104.07967  -2.09033    3.36804     
C           -105.12502  -3.64067    3.54014     
H           -105.10234  -3.11443    1.73777     
H           -106.68373  1.5481      -1.48721    
H           -104.20533  1.59851     -1.46593    
H           -99.8964    -1.70731    1.62986     
H           -97.41601   -1.69959    1.5963      
C           -106.13882  0.88263     -0.83273    
N           -106.17959  -0.85154    0.83434     
C           -106.83648  0.0         -0.0        
C           -92.84314   0.0         -0.0        
C           -93.60363   1.22721     0.00722     
C           -93.58772   -1.15969    0.08212     
N           -93.1076    2.46782     -0.02044    
N           -95.61475   2.41636     0.1061      
S           -94.38486   3.49794     0.04319     
F           -95.56815   -2.38376    0.21034     
H           -93.07936   -2.11578    0.08077     
C           -94.99834   -1.16114    0.15297     
C           -95.06399   1.19987     0.07249     
C           -95.79692   -0.0374     0.13741     
C           -105.65904  -4.67897    4.52736     
C           -106.19305  -5.71726    5.51459     
C           -106.72707  -6.75555    6.50181     
C           -107.26108  -7.79384    7.48904     
C           -107.79509  -8.83213    8.47627     
C           -108.32911  -9.87043    9.46349     
C           -108.86313  -10.90872   10.45072    
C           -109.39714  -11.947     11.43795    
C           -109.93116  -12.9853    12.42518    
C           -110.46518  -14.0236    13.41241    
C           -104.40774  -2.92239    4.68356     
C           -103.69045  -2.20412    5.82699     
C           -102.97318  -1.48584    6.97041     
C           -102.25589  -0.76756    8.11384     
C           -101.53861  -0.04928    9.25726     
C           -100.82133  0.669       10.40069    
C           -100.10405  1.38727     11.54412    
C           -99.38676   2.10555     12.68755    
C           -98.41882   4.77634     -4.13213    
C           -97.87646   5.84969     -5.07637    
C           -97.33409   6.92304     -6.02062    
C           -96.79173   7.99639     -6.96487    
C           -96.24937   9.06974     -7.90911    
C           -95.707     10.14309    -8.85336    
C           -95.16464   11.21644    -9.7976     
C           -94.62227   12.28979    -10.74185   
C           -94.07991   13.36314    -11.6861    
C           -93.53754   14.43649    -12.63034   
C           -99.64416   3.01032     -4.36754    
C           -100.32713  2.31766     -5.54721    
C           -101.01011  1.625       -6.72687    
C           -101.69308  0.93233     -7.90653    
C           -102.37605  0.23967     -9.0862     
C           -103.05903  -0.453      -10.26586   
C           -103.742    -1.14566    -11.44552   
C           -104.42498  -1.83832    -12.62518   
C           -81.80097   -0.09075    0.16622     
N           -82.44714   0.79577     -0.62798    
C           -82.49104   -1.00322    0.97513     
C           -83.76122   0.75827     -0.58371    
C           -84.58249   -0.10308    0.19692     
C           -85.97761   0.23659     -0.10484    
C           -85.88566   1.37005     -1.12374    
N           -84.54436   1.61109     -1.3476     
C           -87.17529   -0.26546    0.35173     
C           -87.26767   -1.36645    1.40238     
N           -88.61078   -1.61786    1.6168      
C           -89.39452   -0.79881    0.81684     
C           -89.2647    0.91383     -0.8252     
C           -88.57005   0.05126     0.02432     
C           -83.88874   -1.01437    0.99857     
O           -86.37443   -1.9557     1.99211     
O           -86.78144   1.99691     -1.66952    
C           -89.11715   -2.60238    2.5529      
C           -84.02969   2.62964     -2.24364    
H           -84.51657   2.13585     -3.0846     
C           -83.48733   3.70299     -3.18788    
H           -83.54281   3.12343     -1.40267    
H           -88.60581   -2.09033    3.36804     
C           -89.65116   -3.64067    3.54014     
H           -89.62848   -3.11443    1.73777     
H           -91.20987   1.5481      -1.48721    
H           -88.73147   1.59851     -1.46593    
H           -84.42254   -1.70731    1.62986     
H           -81.94216   -1.69959    1.5963      
C           -90.66496   0.88263     -0.83273    
N           -90.70573   -0.85154    0.83434     
C           -91.36262   0.0         -0.0        
C           -77.36929   0.0         -0.0        
C           -78.12977   1.22721     0.00722     
C           -78.11387   -1.15969    0.08212     
N           -77.63374   2.46782     -0.02044    
N           -80.14089   2.41636     0.1061      
S           -78.911     3.49794     0.04319     
F           -80.09429   -2.38376    0.21034     
H           -77.60551   -2.11578    0.08077     
C           -79.52449   -1.16114    0.15297     
C           -79.59013   1.19987     0.07249     
C           -80.32306   -0.0374     0.13741     
C           -90.18518   -4.67897    4.52736     
C           -90.7192    -5.71726    5.51459     
C           -91.25321   -6.75555    6.50181     
C           -91.78722   -7.79384    7.48904     
C           -92.32124   -8.83213    8.47627     
C           -92.85525   -9.87043    9.46349     
C           -93.38927   -10.90872   10.45072    
C           -93.92328   -11.947     11.43795    
C           -94.4573    -12.9853    12.42518    
C           -94.99132   -14.0236    13.41241    
C           -88.93388   -2.92239    4.68356     
C           -88.2166    -2.20412    5.82699     
C           -87.49932   -1.48584    6.97041     
C           -86.78203   -0.76756    8.11384     
C           -86.06475   -0.04928    9.25726     
C           -85.34747   0.669       10.40069    
C           -84.63019   1.38727     11.54412    
C           -83.91291   2.10555     12.68755    
C           -82.94496   4.77634     -4.13213    
C           -82.4026    5.84969     -5.07637    
C           -81.86024   6.92304     -6.02062    
C           -81.31787   7.99639     -6.96487    
C           -80.77551   9.06974     -7.90911    
C           -80.23314   10.14309    -8.85336    
C           -79.69078   11.21644    -9.7976     
C           -79.14841   12.28979    -10.74185   
C           -78.60605   13.36314    -11.6861    
C           -78.06369   14.43649    -12.63034   
C           -84.1703    3.01032     -4.36754    
C           -84.85328   2.31766     -5.54721    
C           -85.53625   1.625       -6.72687    
C           -86.21922   0.93233     -7.90653    
C           -86.9022    0.23967     -9.0862     
C           -87.58517   -0.453      -10.26586   
C           -88.26814   -1.14566    -11.44552   
C           -88.95112   -1.83832    -12.62518   
C           -66.32711   -0.09075    0.16622     
N           -66.97328   0.79577     -0.62798    
C           -67.01718   -1.00322    0.97513     
C           -68.28737   0.75827     -0.58371    
C           -69.10863   -0.10308    0.19692     
C           -70.50375   0.23659     -0.10484    
C           -70.4118    1.37005     -1.12374    
N           -69.07051   1.61109     -1.3476     
C           -71.70143   -0.26546    0.35173     
C           -71.79381   -1.36645    1.40238     
N           -73.13693   -1.61786    1.6168      
C           -73.92067   -0.79881    0.81684     
C           -73.79084   0.91383     -0.8252     
C           -73.09619   0.05126     0.02432     
C           -68.41489   -1.01437    0.99857     
O           -70.90057   -1.9557     1.99211     
O           -71.30759   1.99691     -1.66952    
C           -73.64329   -2.60238    2.5529      
C           -68.55584   2.62964     -2.24364    
H           -69.04272   2.13585     -3.0846     
C           -68.01347   3.70299     -3.18788    
H           -68.06895   3.12343     -1.40267    
H           -73.13195   -2.09033    3.36804     
C           -74.1773    -3.64067    3.54014     
H           -74.15462   -3.11443    1.73777     
H           -75.73601   1.5481      -1.48721    
H           -73.25761   1.59851     -1.46593    
H           -68.94869   -1.70731    1.62986     
H           -66.4683    -1.69959    1.5963      
C           -75.19111   0.88263     -0.83273    
N           -75.23188   -0.85154    0.83434     
C           -75.88876   0.0         -0.0        
C           -61.89543   0.0         -0.0        
C           -62.65591   1.22721     0.00722     
C           -62.64001   -1.15969    0.08212     
N           -62.15988   2.46782     -0.02044    
N           -64.66704   2.41636     0.1061      
S           -63.43714   3.49794     0.04319     
F           -64.62043   -2.38376    0.21034     
H           -62.13165   -2.11578    0.08077     
C           -64.05063   -1.16114    0.15297     
C           -64.11628   1.19987     0.07249     
C           -64.8492    -0.0374     0.13741     
C           -74.71132   -4.67897    4.52736     
C           -75.24534   -5.71726    5.51459     
C           -75.77936   -6.75555    6.50181     
C           -76.31336   -7.79384    7.48904     
C           -76.84738   -8.83213    8.47627     
C           -77.38139   -9.87043    9.46349     
C           -77.91541   -10.90872   10.45072    
C           -78.44942   -11.947     11.43795    
C           -78.98345   -12.9853    12.42518    
C           -79.51746   -14.0236    13.41241    
C           -73.46003   -2.92239    4.68356     
C           -72.74274   -2.20412    5.82699     
C           -72.02546   -1.48584    6.97041     
C           -71.30817   -0.76756    8.11384     
C           -70.59089   -0.04928    9.25726     
C           -69.87362   0.669       10.40069    
C           -69.15633   1.38727     11.54412    
C           -68.43905   2.10555     12.68755    
C           -67.47111   4.77634     -4.13213    
C           -66.92874   5.84969     -5.07637    
C           -66.38638   6.92304     -6.02062    
C           -65.84401   7.99639     -6.96487    
C           -65.30165   9.06974     -7.90911    
C           -64.75929   10.14309    -8.85336    
C           -64.21692   11.21644    -9.7976     
C           -63.67456   12.28979    -10.74185   
C           -63.13219   13.36314    -11.6861    
C           -62.58983   14.43649    -12.63034   
C           -68.69645   3.01032     -4.36754    
C           -69.37942   2.31766     -5.54721    
C           -70.06239   1.625       -6.72687    
C           -70.74537   0.93233     -7.90653    
C           -71.42834   0.23967     -9.0862     
C           -72.11131   -0.453      -10.26586   
C           -72.79429   -1.14566    -11.44552   
C           -73.47726   -1.83832    -12.62518   
C           -50.85325   -0.09075    0.16622     
N           -51.49942   0.79577     -0.62798    
C           -51.54332   -1.00322    0.97513     
C           -52.81351   0.75827     -0.58371    
C           -53.63477   -0.10308    0.19692     
C           -55.02989   0.23659     -0.10484    
C           -54.93795   1.37005     -1.12374    
N           -53.59665   1.61109     -1.3476     
C           -56.22757   -0.26546    0.35173     
C           -56.31995   -1.36645    1.40238     
N           -57.66307   -1.61786    1.6168      
C           -58.44681   -0.79881    0.81684     
C           -58.31698   0.91383     -0.8252     
C           -57.62234   0.05126     0.02432     
C           -52.94103   -1.01437    0.99857     
O           -55.42672   -1.9557     1.99211     
O           -55.83373   1.99691     -1.66952    
C           -58.16943   -2.60238    2.5529      
C           -53.08198   2.62964     -2.24364    
H           -53.56886   2.13585     -3.0846     
C           -52.53961   3.70299     -3.18788    
H           -52.5951    3.12343     -1.40267    
H           -57.6581    -2.09033    3.36804     
C           -58.70345   -3.64067    3.54014     
H           -58.68076   -3.11443    1.73777     
H           -60.26216   1.5481      -1.48721    
H           -57.78376   1.59851     -1.46593    
H           -53.47483   -1.70731    1.62986     
H           -50.99444   -1.69959    1.5963      
C           -59.71725   0.88263     -0.83273    
N           -59.75802   -0.85154    0.83434     
C           -60.4149    0.0         -0.0        
C           -46.42157   0.0         -0.0        
C           -47.18206   1.22721     0.00722     
C           -47.16615   -1.15969    0.08212     
N           -46.68602   2.46782     -0.02044    
N           -49.19318   2.41636     0.1061      
S           -47.96329   3.49794     0.04319     
F           -49.14657   -2.38376    0.21034     
H           -46.65779   -2.11578    0.08077     
C           -48.57677   -1.16114    0.15297     
C           -48.64242   1.19987     0.07249     
C           -49.37535   -0.0374     0.13741     
C           -59.23746   -4.67897    4.52736     
C           -59.77148   -5.71726    5.51459     
C           -60.3055    -6.75555    6.50181     
C           -60.8395    -7.79384    7.48904     
C           -61.37352   -8.83213    8.47627     
C           -61.90754   -9.87043    9.46349     
C           -62.44155   -10.90872   10.45072    
C           -62.97557   -11.947     11.43795    
C           -63.50959   -12.9853    12.42518    
C           -64.04361   -14.0236    13.41241    
C           -57.98617   -2.92239    4.68356     
C           -57.26888   -2.20412    5.82699     
C           -56.5516    -1.48584    6.97041     
C           -55.83432   -0.76756    8.11384     
C           -55.11704   -0.04928    9.25726     
C           -54.39976   0.669       10.40069    
C           -53.68248   1.38727     11.54412    
C           -52.96519   2.10555     12.68755    
C           -51.99725   4.77634     -4.13213    
C           -51.45489   5.84969     -5.07637    
C           -50.91252   6.92304     -6.02062    
C           -50.37016   7.99639     -6.96487    
C           -49.82779   9.06974     -7.90911    
C           -49.28543   10.14309    -8.85336    
C           -48.74306   11.21644    -9.7976     
C           -48.2007    12.28979    -10.74185   
C           -47.65834   13.36314    -11.6861    
C           -47.11597   14.43649    -12.63034   
C           -53.22259   3.01032     -4.36754    
C           -53.90556   2.31766     -5.54721    
C           -54.58853   1.625       -6.72687    
C           -55.27151   0.93233     -7.90653    
C           -55.95448   0.23967     -9.0862     
C           -56.63746   -0.453      -10.26586   
C           -57.32043   -1.14566    -11.44552   
C           -58.0034    -1.83832    -12.62518   
C           -35.37939   -0.09075    0.16622     
N           -36.02557   0.79577     -0.62798    
C           -36.06946   -1.00322    0.97513     
C           -37.33965   0.75827     -0.58371    
C           -38.16092   -0.10308    0.19692     
C           -39.55604   0.23659     -0.10484    
C           -39.46409   1.37005     -1.12374    
N           -38.12279   1.61109     -1.3476     
C           -40.75371   -0.26546    0.35173     
C           -40.84609   -1.36645    1.40238     
N           -42.18921   -1.61786    1.6168      
C           -42.97295   -0.79881    0.81684     
C           -42.84313   0.91383     -0.8252     
C           -42.14848   0.05126     0.02432     
C           -37.46717   -1.01437    0.99857     
O           -39.95286   -1.9557     1.99211     
O           -40.35987   1.99691     -1.66952    
C           -42.69557   -2.60238    2.5529      
C           -37.60812   2.62964     -2.24364    
H           -38.095     2.13585     -3.0846     
C           -37.06576   3.70299     -3.18788    
H           -37.12124   3.12343     -1.40267    
H           -42.18424   -2.09033    3.36804     
C           -43.22959   -3.64067    3.54014     
H           -43.20691   -3.11443    1.73777     
H           -44.7883    1.5481      -1.48721    
H           -42.3099    1.59851     -1.46593    
H           -38.00097   -1.70731    1.62986     
H           -35.52058   -1.69959    1.5963      
C           -44.24339   0.88263     -0.83273    
N           -44.28416   -0.85154    0.83434     
C           -44.94105   0.0         -0.0        
C           -30.94771   0.0         -0.0        
C           -31.7082    1.22721     0.00722     
C           -31.69229   -1.15969    0.08212     
N           -31.21217   2.46782     -0.02044    
N           -33.71932   2.41636     0.1061      
S           -32.48943   3.49794     0.04319     
F           -33.67272   -2.38376    0.21034     
H           -31.18393   -2.11578    0.08077     
C           -33.10291   -1.16114    0.15297     
C           -33.16856   1.19987     0.07249     
C           -33.90149   -0.0374     0.13741     
C           -43.76361   -4.67897    4.52736     
C           -44.29762   -5.71726    5.51459     
C           -44.83164   -6.75555    6.50181     
C           -45.36565   -7.79384    7.48904     
C           -45.89966   -8.83213    8.47627     
C           -46.43368   -9.87043    9.46349     
C           -46.9677    -10.90872   10.45072    
C           -47.50171   -11.947     11.43795    
C           -48.03573   -12.9853    12.42518    
C           -48.56975   -14.0236    13.41241    
C           -42.51231   -2.92239    4.68356     
C           -41.79502   -2.20412    5.82699     
C           -41.07775   -1.48584    6.97041     
C           -40.36046   -0.76756    8.11384     
C           -39.64318   -0.04928    9.25726     
C           -38.9259    0.669       10.40069    
C           -38.20862   1.38727     11.54412    
C           -37.49133   2.10555     12.68755    
C           -36.52339   4.77634     -4.13213    
C           -35.98103   5.84969     -5.07637    
C           -35.43866   6.92304     -6.02062    
C           -34.8963    7.99639     -6.96487    
C           -34.35394   9.06974     -7.90911    
C           -33.81157   10.14309    -8.85336    
C           -33.26921   11.21644    -9.7976     
C           -32.72684   12.28979    -10.74185   
C           -32.18448   13.36314    -11.6861    
C           -31.64211   14.43649    -12.63034   
C           -37.74873   3.01032     -4.36754    
C           -38.4317    2.31766     -5.54721    
C           -39.11468   1.625       -6.72687    
C           -39.79765   0.93233     -7.90653    
C           -40.48062   0.23967     -9.0862     
C           -41.1636    -0.453      -10.26586   
C           -41.84657   -1.14566    -11.44552   
C           -42.52955   -1.83832    -12.62518   
C           -19.90554   -0.09075    0.16622     
N           -20.55171   0.79577     -0.62798    
C           -20.59561   -1.00322    0.97513     
C           -21.86579   0.75827     -0.58371    
C           -22.68706   -0.10308    0.19692     
C           -24.08218   0.23659     -0.10484    
C           -23.99023   1.37005     -1.12374    
N           -22.64893   1.61109     -1.3476     
C           -25.27986   -0.26546    0.35173     
C           -25.37224   -1.36645    1.40238     
N           -26.71535   -1.61786    1.6168      
C           -27.49909   -0.79881    0.81684     
C           -27.36927   0.91383     -0.8252     
C           -26.67462   0.05126     0.02432     
C           -21.99331   -1.01437    0.99857     
O           -24.479     -1.9557     1.99211     
O           -24.88601   1.99691     -1.66952    
C           -27.22172   -2.60238    2.5529      
C           -22.13426   2.62964     -2.24364    
H           -22.62114   2.13585     -3.0846     
C           -21.5919    3.70299     -3.18788    
H           -21.64738   3.12343     -1.40267    
H           -26.71038   -2.09033    3.36804     
C           -27.75573   -3.64067    3.54014     
H           -27.73305   -3.11443    1.73777     
H           -29.31444   1.5481      -1.48721    
H           -26.83604   1.59851     -1.46593    
H           -22.52711   -1.70731    1.62986     
H           -20.04673   -1.69959    1.5963      
C           -28.76953   0.88263     -0.83273    
N           -28.8103    -0.85154    0.83434     
C           -29.46719   0.0         -0.0        
C           -15.47386   0.0         -0.0        
C           -16.23434   1.22721     0.00722     
C           -16.21844   -1.15969    0.08212     
N           -15.73831   2.46782     -0.02044    
N           -18.24546   2.41636     0.1061      
S           -17.01557   3.49794     0.04319     
F           -18.19886   -2.38376    0.21034     
H           -15.71008   -2.11578    0.08077     
C           -17.62906   -1.16114    0.15297     
C           -17.6947    1.19987     0.07249     
C           -18.42763   -0.0374     0.13741     
C           -28.28975   -4.67897    4.52736     
C           -28.82377   -5.71726    5.51459     
C           -29.35778   -6.75555    6.50181     
C           -29.89179   -7.79384    7.48904     
C           -30.42581   -8.83213    8.47627     
C           -30.95982   -9.87043    9.46349     
C           -31.49384   -10.90872   10.45072    
C           -32.02785   -11.947     11.43795    
C           -32.56187   -12.9853    12.42518    
C           -33.09589   -14.0236    13.41241    
C           -27.03845   -2.92239    4.68356     
C           -26.32117   -2.20412    5.82699     
C           -25.60389   -1.48584    6.97041     
C           -24.8866    -0.76756    8.11384     
C           -24.16932   -0.04928    9.25726     
C           -23.45204   0.669       10.40069    
C           -22.73476   1.38727     11.54412    
C           -22.01748   2.10555     12.68755    
C           -21.04953   4.77634     -4.13213    
C           -20.50717   5.84969     -5.07637    
C           -19.96481   6.92304     -6.02062    
C           -19.42244   7.99639     -6.96487    
C           -18.88008   9.06974     -7.90911    
C           -18.33771   10.14309    -8.85336    
C           -17.79535   11.21644    -9.7976     
C           -17.25299   12.28979    -10.74185   
C           -16.71062   13.36314    -11.6861    
C           -16.16826   14.43649    -12.63034   
C           -22.27487   3.01032     -4.36754    
C           -22.95785   2.31766     -5.54721    
C           -23.64082   1.625       -6.72687    
C           -24.32379   0.93233     -7.90653    
C           -25.00677   0.23967     -9.0862     
C           -25.68974   -0.453      -10.26586   
C           -26.37271   -1.14566    -11.44552   
C           -27.05569   -1.83832    -12.62518   
C           -4.43168    -0.09075    0.16622     
N           -5.07785    0.79577     -0.62798    
C           -5.12175    -1.00322    0.97513     
C           -6.39194    0.75827     -0.58371    
C           -7.2132     -0.10308    0.19692     
C           -8.60832    0.23659     -0.10484    
C           -8.51638    1.37005     -1.12374    
N           -7.17508    1.61109     -1.3476     
C           -9.806      -0.26546    0.35173     
C           -9.89838    -1.36645    1.40238     
N           -11.2415    -1.61786    1.6168      
C           -12.02524   -0.79881    0.81684     
C           -11.89541   0.91383     -0.8252     
C           -11.20076   0.05126     0.02432     
C           -6.51946    -1.01437    0.99857     
O           -9.00514    -1.9557     1.99211     
O           -9.41216    1.99691     -1.66952    
C           -11.74786   -2.60238    2.5529      
C           -6.66041    2.62964     -2.24364    
H           -7.14729    2.13585     -3.0846     
C           -6.11804    3.70299     -3.18788    
H           -6.17352    3.12343     -1.40267    
H           -11.23652   -2.09033    3.36804     
C           -12.28187   -3.64067    3.54014     
H           -12.25919   -3.11443    1.73777     
H           -13.84058   1.5481      -1.48721    
H           -11.36218   1.59851     -1.46593    
H           -7.05326    -1.70731    1.62986     
H           -4.57287    -1.69959    1.5963      
C           -13.29568   0.88263     -0.83273    
N           -13.33645   -0.85154    0.83434     
C           -13.99333   0.0         -0.0        
C           0.0         0.0         0.0         
C           -0.76048    1.22721     0.00722     
C           -0.74458    -1.15969    0.08212     
N           -0.26445    2.46782     -0.02044    
N           -2.77161    2.41636     0.1061      
S           -1.54171    3.49794     0.04319     
F           -2.725      -2.38376    0.21034     
H           -0.23622    -2.11578    0.08077     
C           -2.1552     -1.16114    0.15297     
C           -2.22085    1.19987     0.07249     
C           -2.95377    -0.0374     0.13741     
C           -12.81589   -4.67897    4.52736     
C           -13.34991   -5.71726    5.51459     
C           -13.88393   -6.75555    6.50181     
C           -14.41793   -7.79384    7.48904     
C           -14.95195   -8.83213    8.47627     
C           -15.48597   -9.87043    9.46349     
C           -16.01998   -10.90872   10.45072    
C           -16.554     -11.947     11.43795    
C           -17.08802   -12.9853    12.42518    
C           -17.62203   -14.0236    13.41241    
C           -11.5646    -2.92239    4.68356     
C           -10.84731   -2.20412    5.82699     
C           -10.13003   -1.48584    6.97041     
C           -9.41274    -0.76756    8.11384     
C           -8.69546    -0.04928    9.25726     
C           -7.97819    0.669       10.40069    
C           -7.2609     1.38727     11.54412    
C           -6.54362    2.10555     12.68755    
C           -5.57568    4.77634     -4.13213    
C           -5.03331    5.84969     -5.07637    
C           -4.49095    6.92304     -6.02062    
C           -3.94858    7.99639     -6.96487    
C           -3.40622    9.06974     -7.90911    
C           -2.86386    10.14309    -8.85336    
C           -2.32149    11.21644    -9.7976     
C           -1.77913    12.28979    -10.74185   
C           -1.23676    13.36314    -11.6861    
C           -0.6944     14.43649    -12.63034   
C           -6.80102    3.01032     -4.36754    
C           -7.48399    2.31766     -5.54721    
C           -8.16696    1.625       -6.72687    
C           -8.84994    0.93233     -7.90653    
C           -9.53291    0.23967     -9.0862     
C           -10.21588   -0.453      -10.26586   
C           -10.89886   -1.14566    -11.44552   
C           -11.58183   -1.83832    -12.62518   
H           -154.34805  0.0         -0.0        
H           1.09        0.0         0.0         
