81

C           -4.43168    -0.09048    0.16636     
N           -5.07785    0.79476     -0.62927    
C           -5.12175    -1.00164    0.97674     
C           -6.39194    0.75733     -0.58493    
C           -7.2132     -0.10277    0.19709     
C           -8.60832    0.23642     -0.10522    
C           -8.51638    1.36824     -1.12594    
N           -7.17508    1.60892     -1.3502     
C           -9.806      -0.26489    0.35216     
C           -9.89838    -1.36419    1.40458     
N           -11.2415    -1.61525    1.6194      
C           -12.02524   -0.79749    0.81813     
C           -11.89541   0.9125      -0.82667    
C           -11.20076   0.0513      0.02424     
C           -6.51946    -1.01276    1.0002      
O           -9.00514    -1.95248    1.99526     
O           -9.41216    1.99422     -1.67273    
C           -11.74786   -2.59826    2.55709     
C           -6.66041    2.62602     -2.24787    
H           -7.14729    2.13088     -3.08804    
C           -6.11804    3.69785     -3.19384    
H           -6.17352    3.12116     -1.4077     
H           -11.23652   -2.0849     3.3714      
C           -12.28187   -3.63497    3.546       
H           -12.25919   -3.11163    1.74279     
H           -13.84058   1.5457      -1.48971    
H           -11.36218   1.59615     -1.4685     
H           -7.05326    -1.70469    1.63261     
H           -4.57287    -1.69702    1.59903     
C           -13.29568   0.88128     -0.83415    
N           -13.33645   -0.85019    0.83571     
C           -13.99333   0.0         -0.0        
C           0.0         0.0         0.0         
C           -0.76048    1.22722     0.00525     
C           -0.74458    -1.15956    0.08399     
N           -0.26445    2.46779     -0.02442    
N           -2.77161    2.41653     0.10221     
S           -1.54171    3.49801     0.03756     
F           -2.725      -2.38342    0.21417     
H           -0.23622    -2.11564    0.08418     
C           -2.1552     -1.16089    0.15484     
C           -2.22085    1.19998     0.07056     
C           -2.95377    -0.03718    0.13747     
C           -12.81589   -4.67167    4.53489     
C           -13.34991   -5.70837    5.52379     
C           -13.88393   -6.74507    6.51268     
C           -14.41793   -7.78177    7.50159     
C           -14.95195   -8.81847    8.49048     
C           -15.48597   -9.85517    9.47938     
C           -16.01998   -10.89187   10.46827    
C           -16.554     -11.92857   11.45718    
C           -17.08802   -12.96527   12.44608    
C           -17.62203   -14.00197   13.43498    
C           -11.5646    -2.91485    4.68826     
C           -10.84731   -2.19473    5.83053     
C           -10.13003   -1.47461    6.9728      
C           -9.41274    -0.75449    8.11506     
C           -8.69546    -0.03437    9.25733     
C           -7.97819    0.68575     10.3996     
C           -7.2609     1.40586     11.54187    
C           -6.54362    2.12599     12.68414    
C           -5.57568    4.76968     -4.13982    
C           -5.03331    5.8415      -5.08579    
C           -4.49095    6.91333     -6.03176    
C           -3.94858    7.98516     -6.97774    
C           -3.40622    9.05699     -7.92371    
C           -2.86386    10.12882    -8.86968    
C           -2.32149    11.20065    -9.81566    
C           -1.77913    12.27247    -10.76163   
C           -1.23676    13.3443     -11.70761   
C           -0.6944     14.41613    -12.65358   
C           -6.80102    3.00328     -4.37239    
C           -7.48399    2.30872     -5.55093    
C           -8.16696    1.61416     -6.72948    
C           -8.84994    0.91959     -7.90802    
C           -9.53291    0.22503     -9.08657    
C           -10.21588   -0.46953    -10.26512   
C           -10.89886   -1.1641     -11.44366   
C           -11.58183   -1.85866    -12.62221   
H           -15.08333   0.0         -0.0        
H           1.09        0.0         0.0         
