782

C           -178.13941  -15.32389   5.67585     
C           -178.49     -13.97731   5.69019     
S           -179.59581  -16.32117   5.66696     
H           -180.31867  -12.76313   5.68449     
H           -177.74043  -13.19168   5.69816     
C           -179.87772  -13.75427   5.68623     
C           -180.63721  -14.91372   5.66914     
C           -173.32273  -15.17317   5.68723     
C           -174.498    -15.93134   5.67529     
N           -173.71177  -13.83403   5.70247     
C           -175.13947  -13.69818   5.70055     
C           -174.97713  -17.2945    5.65735     
O           -174.41595  -18.38845   5.64474     
O           -175.70081  -12.60434   5.71185     
C           -177.23603  -18.34879   5.63976     
C           -172.88079  -12.64375   5.71883     
C           -172.00559  -11.39013   5.73608     
H           -173.37485  -12.28641   4.81533     
H           -172.38674  -13.0011    6.62234     
H           -176.74188  -18.70613   6.54321     
C           -178.11129  -19.60238   5.62266     
H           -177.73019  -17.99145   4.73631     
N           -176.40499  -17.15853   5.65599     
C           -175.61863  -15.06148   5.68329     
C           -176.79375  -15.81954   5.67156     
C           -169.47918  -16.07975   5.68299     
C           -170.24039  -17.23939   5.6677      
S           -170.52096  -14.67173   5.70427     
H           -172.37705  -17.80103   5.65566     
H           -169.80036  -18.2308    5.65012     
C           -171.62712  -17.0158    5.66877     
C           -171.97767  -15.66867   5.685       
C           -163.43636  -15.51438   5.66914     
C           -164.18789  -16.6707    5.73648     
S           -164.4617   -14.06844   5.60368     
C           -165.57762  -16.40294   5.72756     
C           -165.90433  -15.04942   5.6487      
H           -167.72902  -13.79367   5.55602     
H           -163.74802  -17.66082   5.7695      
S           -167.01659  -17.38573   5.77592     
C           -167.29155  -14.78336   5.62225     
C           -168.04631  -15.94167   5.68401     
C           -171.13038  -10.13651   5.75333     
C           -170.25518  -8.8829     5.77057     
C           -169.37997  -7.62928    5.78781     
C           -168.50476  -6.37566    5.80506     
C           -167.62956  -5.12204    5.8223      
C           -166.75435  -3.86843    5.83955     
C           -165.87914  -2.61481    5.85679     
C           -165.00394  -1.36119    5.87404     
C           -164.12874  -0.10757    5.89128     
C           -163.25353  1.14605     5.90853     
C           -172.69862  -10.88887   4.46869     
C           -173.39165  -10.3876    3.2013      
C           -174.08469  -9.88633    1.93391     
C           -174.77772  -9.38506    0.66652     
C           -175.47075  -8.88379    -0.60087    
C           -176.16379  -8.38252    -1.86825    
C           -176.85682  -7.88125    -3.13564    
C           -177.54985  -7.37998    -4.40303    
C           -178.98654  -20.85596   5.60557     
C           -179.8618   -22.10955   5.58847     
C           -180.73705  -23.36314   5.57137     
C           -181.61231  -24.61672   5.55428     
C           -182.48756  -25.87031   5.53718     
C           -183.36281  -27.1239    5.52008     
C           -184.23807  -28.37748   5.50299     
C           -185.11332  -29.63107   5.48589     
C           -185.98858  -30.88465   5.46879     
C           -186.86383  -32.13824   5.4517      
C           -177.41811  -20.10364   6.88998     
C           -176.72494  -20.60489   8.1573      
C           -176.03177  -21.10615   9.42461     
C           -175.33859  -21.60741   10.69193    
C           -174.64542  -22.10867   11.95925    
C           -173.95225  -22.60993   13.22656    
C           -173.25907  -23.11118   14.49388    
C           -172.5659   -23.61244   15.7612     
C           -159.79107  -16.14508   5.1236      
C           -160.36517  -14.9154    4.81585     
S           -161.05617  -17.3516    5.36764     
H           -162.37198  -14.07219   4.53303     
H           -159.76034  -14.03336   4.6279      
C           -161.76969  -14.94277   4.76992     
C           -162.3206   -16.18592   5.03924     
C           -155.07281  -15.16685   5.05776     
C           -156.10146  -16.09708   5.23884     
N           -155.68355  -13.9507    4.75301     
C           -157.11273  -14.0678    4.73042     
C           -156.34166  -17.48669   5.55406     
O           -155.60303  -18.43819   5.80081     
O           -157.85145  -13.11674   4.48242     
C           -158.38723  -18.88831   5.81016     
C           -155.06742  -12.66593   4.47497     
C           -154.41851  -11.31278   4.18214     
H           -155.5843   -12.62555   3.51616     
H           -154.55056  -12.70631   5.43378     
H           -157.87026  -18.92867   6.76891     
C           -159.03621  -20.24139   6.10313     
H           -158.9042   -18.84794   4.8514      
N           -157.77104  -17.60357   5.53199     
C           -157.35297  -15.45739   5.04634     
C           -158.38149  -16.38744   5.22759     
C           -151.13326  -15.37067   5.23983     
C           -151.68589  -16.61386   5.51095     
S           -152.3988   -14.19994   4.92984     
H           -153.69477  -17.52228   5.65264     
H           -151.08381  -17.48948   5.72917     
C           -153.0897   -16.63934   5.46976     
C           -153.66391  -15.40868   5.16372     
C           -145.27677  -13.79056   5.03924     
C           -145.82321  -15.00917   5.38966     
S           -146.52962  -12.60148   4.63578     
C           -147.23711  -14.99534   5.32815     
C           -147.78573  -13.77717   4.92809     
H           -149.79276  -12.91433   4.55079     
H           -145.2232   -15.8715    5.65668     
S           -148.48943  -16.17133   5.62411     
C           -149.1963   -13.76872   4.84996     
C           -149.7454   -14.99113   5.19548     
C           -153.7696   -9.95964    3.88931     
C           -153.12068  -8.60649    3.59647     
C           -152.47176  -7.25335    3.30364     
C           -151.82285  -5.90021    3.01081     
C           -151.17393  -4.54706    2.71798     
C           -150.52501  -3.19392    2.42515     
C           -149.8761   -1.84078    2.13231     
C           -149.22719  -0.48763    1.83949     
C           -148.57827  0.86552     1.54665     
C           -147.92936  2.21866     1.25382     
C           -155.14355  -11.25615   2.83716     
C           -155.86859  -11.1995    1.49219     
C           -156.59364  -11.14287   0.14723     
C           -157.31869  -11.08623   -1.19774    
C           -158.04373  -11.02959   -2.54271    
C           -158.76878  -10.97295   -3.88768    
C           -159.49382  -10.91631   -5.23265    
C           -160.21886  -10.85967   -6.57762    
C           -159.68518  -21.59448   6.39609     
C           -160.33415  -22.94757   6.68906     
C           -160.98313  -24.30065   6.98203     
C           -161.6321   -25.65374   7.275       
C           -162.28108  -27.00683   7.56796     
C           -162.93005  -28.35991   7.86093     
C           -163.57903  -29.713     8.1539      
C           -164.228    -31.06609   8.44687     
C           -164.87697  -32.41917   8.73984     
C           -165.52595  -33.77226   9.0328      
C           -158.31102  -20.29802   7.44802     
C           -157.58584  -20.35464   8.79292     
C           -156.86066  -20.41126   10.13781    
C           -156.13548  -20.46788   11.48271    
C           -155.41029  -20.5245    12.8276     
C           -154.68511  -20.58112   14.1725     
C           -153.95993  -20.63774   15.5174     
C           -153.23475  -20.69436   16.86229    
C           -141.63148  -14.42126   4.49369     
C           -142.20557  -13.19158   4.18595     
S           -142.89658  -15.62778   4.73774     
H           -144.21239  -12.34837   3.90312     
H           -141.60075  -12.30954   3.99799     
C           -143.61009  -13.21895   4.14002     
C           -144.161    -14.4621    4.40933     
C           -136.91322  -13.44303   4.42786     
C           -137.94186  -14.37326   4.60893     
N           -137.52395  -12.22688   4.1231      
C           -138.95314  -12.34398   4.10052     
C           -138.18206  -15.76287   4.92416     
O           -137.44343  -16.71437   5.17091     
O           -139.69186  -11.39292   3.85252     
C           -140.22764  -17.16449   5.18025     
C           -136.90783  -10.94211   3.84506     
C           -136.25892  -9.58896    3.55223     
H           -137.4247   -10.90173   2.88626     
H           -136.39096  -10.98249   4.80387     
H           -139.71066  -17.20485   6.13901     
C           -140.87661  -18.51757   5.47322     
H           -140.74461  -17.12412   4.2215      
N           -139.61145  -15.87975   4.90208     
C           -139.19337  -13.73357   4.41644     
C           -140.22189  -14.66362   4.59768     
C           -132.97366  -13.64685   4.60993     
C           -133.5263   -14.89004   4.88104     
S           -134.2392   -12.47612   4.29993     
H           -135.53517  -15.79846   5.02273     
H           -132.92422  -15.76566   5.09927     
C           -134.9301   -14.91552   4.83985     
C           -135.50431  -13.68486   4.53382     
C           -127.11717  -12.06674   4.40933     
C           -127.66361  -13.28535   4.75976     
S           -128.37002  -10.87766   4.00587     
C           -129.07752  -13.27152   4.69825     
C           -129.62614  -12.05335   4.29819     
H           -131.63316  -11.19051   3.92089     
H           -127.0636   -14.14768   5.02678     
S           -130.32983  -14.44751   4.99421     
C           -131.0367   -12.0449    4.22006     
C           -131.5858   -13.26731   4.56557     
C           -135.61     -8.23582    3.2594      
C           -134.96108  -6.88267    2.96657     
C           -134.31217  -5.52953    2.67374     
C           -133.66325  -4.17639    2.38091     
C           -133.01434  -2.82324    2.08807     
C           -132.36542  -1.4701     1.79524     
C           -131.7165   -0.11696    1.50241     
C           -131.06759  1.23619     1.20958     
C           -130.41868  2.58934     0.91675     
C           -129.76976  3.94248     0.62392     
C           -136.98395  -9.53233    2.20726     
C           -137.709    -9.47568    0.86229     
C           -138.43405  -9.41905    -0.48268    
C           -139.15909  -9.36241    -1.82765    
C           -139.88414  -9.30577    -3.17262    
C           -140.60918  -9.24913    -4.51759    
C           -141.33422  -9.19249    -5.86256    
C           -142.05927  -9.13585    -7.20753    
C           -141.52558  -19.87066   5.76619     
C           -142.17456  -21.22375   6.05916     
C           -142.82353  -22.57683   6.35212     
C           -143.47251  -23.92992   6.64509     
C           -144.12148  -25.28301   6.93806     
C           -144.77046  -26.63609   7.23103     
C           -145.41943  -27.98918   7.524       
C           -146.0684   -29.34227   7.81696     
C           -146.71738  -30.69535   8.10993     
C           -147.36635  -32.04844   8.4029      
C           -140.15143  -18.5742    6.81812     
C           -139.42625  -18.63082   8.16301     
C           -138.70106  -18.68744   9.50791     
C           -137.97588  -18.74406   10.8528     
C           -137.2507   -18.80068   12.1977     
C           -136.52551  -18.8573    13.5426     
C           -135.80033  -18.91392   14.88749    
C           -135.07515  -18.97054   16.23239    
C           -123.47188  -12.69744   3.86379     
C           -124.04598  -11.46776   3.55605     
S           -124.73698  -13.90396   4.10783     
H           -126.05279  -10.62455   3.27322     
H           -123.44115  -10.58572   3.36809     
C           -125.4505   -11.49513   3.51012     
C           -126.00141  -12.73828   3.77943     
C           -118.75362  -11.71921   3.79796     
C           -119.78226  -12.64943   3.97903     
N           -119.36436  -10.50306   3.4932      
C           -120.79354  -10.62016   3.47061     
C           -120.02247  -14.03905   4.29425     
O           -119.28384  -14.99055   4.541       
O           -121.53226  -9.6691     3.22262     
C           -122.06804  -15.44067   4.55035     
C           -118.74823  -9.21829    3.21516     
C           -118.09932  -7.86514    2.92233     
H           -119.26511  -9.17791    2.25635     
H           -118.23137  -9.25867    4.17397     
H           -121.55107  -15.48103   5.5091      
C           -122.71701  -16.79375   4.84332     
H           -122.58501  -15.4003    3.59159     
N           -121.45185  -14.15593   4.27218     
C           -121.03377  -12.00975   3.78653     
C           -122.06229  -12.9398    3.96778     
C           -114.81407  -11.92303   3.98003     
C           -115.3667   -13.16622   4.25114     
S           -116.0796   -10.7523    3.67003     
H           -117.37558  -14.07464   4.39283     
H           -114.76462  -14.04184   4.46936     
C           -116.7705   -13.1917    4.20995     
C           -117.34472  -11.96104   3.90391     
C           -108.95758  -10.34292   3.77943     
C           -109.50401  -11.56153   4.12985     
S           -110.21043  -9.15384    3.37597     
C           -110.91792  -11.5477    4.06834     
C           -111.46654  -10.32953   3.66829     
H           -113.47357  -9.46669    3.29098     
H           -108.904    -12.42386   4.39687     
S           -112.17024  -12.72369   4.36431     
C           -112.87711  -10.32108   3.59015     
C           -113.42621  -11.54349   3.93567     
C           -117.45041  -6.512      2.6295      
C           -116.80149  -5.15885    2.33667     
C           -116.15257  -3.80571    2.04383     
C           -115.50366  -2.45257    1.751       
C           -114.85474  -1.09942    1.45817     
C           -114.20582  0.25372     1.16534     
C           -113.55691  1.60686     0.8725      
C           -112.908    2.96001     0.57968     
C           -112.25908  4.31316     0.28684     
C           -111.61016  5.6663      -0.00599    
C           -118.82436  -7.80851    1.57736     
C           -119.5494   -7.75186    0.23239     
C           -120.27445  -7.69523    -1.11258    
C           -120.9995   -7.63859    -2.45755    
C           -121.72454  -7.58195    -3.80252    
C           -122.44958  -7.52531    -5.14749    
C           -123.17463  -7.46867    -6.49246    
C           -123.89967  -7.41203    -7.83743    
C           -123.36599  -18.14684   5.13628     
C           -124.01496  -19.49993   5.42925     
C           -124.66394  -20.85301   5.72222     
C           -125.31291  -22.2061    6.01519     
C           -125.96189  -23.55919   6.30816     
C           -126.61086  -24.91227   6.60112     
C           -127.25983  -26.26536   6.89409     
C           -127.90881  -27.61845   7.18706     
C           -128.55778  -28.97153   7.48003     
C           -129.20676  -30.32462   7.77299     
C           -121.99183  -16.85038   6.18821     
C           -121.26665  -16.907     7.53311     
C           -120.54147  -16.96362   8.878       
C           -119.81628  -17.02024   10.2229     
C           -119.0911   -17.07686   11.5678     
C           -118.36592  -17.13348   12.91269    
C           -117.64074  -17.1901    14.25759    
C           -116.91555  -17.24672   15.60248    
C           -105.31229  -10.97362   3.23388     
C           -105.88638  -9.74394    2.92614     
S           -106.57738  -12.18014   3.47793     
H           -107.8932   -8.90073    2.64332     
H           -105.28155  -8.8619     2.73818     
C           -107.2909   -9.77131    2.88021     
C           -107.84181  -11.01446   3.14952     
C           -100.59403  -9.99539    3.16805     
C           -101.62267  -10.92561   3.34913     
N           -101.20476  -8.77924    2.86329     
C           -102.63394  -8.89634    2.84071     
C           -101.86287  -12.31523   3.66435     
O           -101.12424  -13.26673   3.9111      
O           -103.37266  -7.94528    2.59271     
C           -103.90844  -13.71685   3.92044     
C           -100.58863  -7.49447    2.58525     
C           -99.93973   -6.14132    2.29242     
H           -101.10551  -7.45409    1.62645     
H           -100.07177  -7.53485    3.54406     
H           -103.39147  -13.75721   4.8792      
C           -104.55742  -15.06993   4.21341     
H           -104.42542  -13.67648   2.96169     
N           -103.29225  -12.43211   3.64228     
C           -102.87418  -10.28593   3.15663     
C           -103.9027   -11.21598   3.33787     
C           -96.65447   -10.19921   3.35012     
C           -97.2071    -11.4424    3.62123     
S           -97.92001   -9.02848    3.04012     
H           -99.21598   -12.35082   3.76293     
H           -96.60503   -12.31802   3.83946     
C           -98.61091   -11.46788   3.58004     
C           -99.18512   -10.23722   3.27401     
C           -90.79798   -8.6191     3.14952     
C           -91.34442   -9.83771    3.49995     
S           -92.05083   -7.43002    2.74606     
C           -92.75832   -9.82388    3.43844     
C           -93.30694   -8.60571    3.03838     
H           -95.31397   -7.74287    2.66108     
H           -90.74441   -10.70004   3.76697     
S           -94.01064   -10.99987   3.7344      
C           -94.71751   -8.59726    2.96025     
C           -95.26661   -9.81967    3.30576     
C           -99.29081   -4.78818    1.99959     
C           -98.64189   -3.43503    1.70676     
C           -97.99298   -2.08189    1.41393     
C           -97.34406   -0.72875    1.1211      
C           -96.69514   0.6244      0.82826     
C           -96.04623   1.97754     0.53543     
C           -95.39731   3.33068     0.2426      
C           -94.7484    4.68383     -0.05023    
C           -94.09948   6.03698     -0.34306    
C           -93.45057   7.39012     -0.63589    
C           -100.66476  -6.08468    0.94745     
C           -101.38981  -6.02804    -0.39752    
C           -102.11485  -5.97141    -1.74249    
C           -102.8399   -5.91477    -3.08746    
C           -103.56494  -5.85813    -4.43243    
C           -104.28999  -5.80149    -5.7774     
C           -105.01503  -5.74485    -7.12237    
C           -105.74008  -5.68821    -8.46734    
C           -105.20639  -16.42302   4.50638     
C           -105.85537  -17.77611   4.79935     
C           -106.50434  -19.12919   5.09232     
C           -107.15331  -20.48228   5.38528     
C           -107.80229  -21.83537   5.67825     
C           -108.45126  -23.18845   5.97122     
C           -109.10024  -24.54154   6.26419     
C           -109.74921  -25.89463   6.55715     
C           -110.39819  -27.24771   6.85012     
C           -111.04716  -28.6008    7.14309     
C           -103.83224  -15.12656   5.55831     
C           -103.10705  -15.18318   6.9032      
C           -102.38187  -15.2398    8.2481      
C           -101.65669  -15.29642   9.593       
C           -100.9315   -15.35304   10.93789    
C           -100.20632  -15.40966   12.28279    
C           -99.48114   -15.46628   13.62768    
C           -98.75596   -15.5229    14.97258    
C           -87.15269   -9.2498     2.60398     
C           -87.72678   -8.02012    2.29624     
S           -88.41779   -10.45632   2.84802     
H           -89.7336    -7.17691    2.01341     
H           -87.12196   -7.13808    2.10828     
C           -89.13131   -8.04749    2.25031     
C           -89.68222   -9.29064    2.51962     
C           -82.43443   -8.27157    2.53815     
C           -83.46307   -9.20179    2.71922     
N           -83.04517   -7.05542    2.23339     
C           -84.47435   -7.17252    2.2108      
C           -83.70328   -10.59141   3.03444     
O           -82.96464   -11.54291   3.28119     
O           -85.21307   -6.22146    1.96281     
C           -85.74885   -11.99303   3.29054     
C           -82.42904   -5.77065    1.95535     
C           -81.78013   -4.4175     1.66252     
H           -82.94592   -5.73027    0.99654     
H           -81.91217   -5.81103    2.91416     
H           -85.23188   -12.03339   4.24929     
C           -86.39782   -13.34611   3.58351     
H           -86.26582   -11.95266   2.33178     
N           -85.13266   -10.70829   3.01237     
C           -84.71458   -8.56211    2.52672     
C           -85.7431    -9.49216    2.70797     
C           -78.49487   -8.47539    2.72022     
C           -79.04751   -9.71858    2.99133     
S           -79.76041   -7.30466    2.41022     
H           -81.05638   -10.627     3.13302     
H           -78.44543   -10.5942    3.20955     
C           -80.45131   -9.74406    2.95014     
C           -81.02552   -8.5134     2.64411     
C           -72.63838   -6.89528    2.51962     
C           -73.18482   -8.11389    2.87004     
S           -73.89123   -5.7062     2.11616     
C           -74.59873   -8.10006    2.80853     
C           -75.14735   -6.88189    2.40848     
H           -77.15438   -6.01905    2.03117     
H           -72.58481   -8.97622    3.13706     
S           -75.85104   -9.27605    3.1045      
C           -76.55791   -6.87343    2.33034     
C           -77.10702   -8.09585    2.67586     
C           -81.13121   -3.06436    1.36969     
C           -80.4823    -1.71121    1.07686     
C           -79.83338   -0.35807    0.78402     
C           -79.18446   0.99507     0.49119     
C           -78.53555   2.34822     0.19836     
C           -77.88663   3.70136     -0.09447    
C           -77.23771   5.0545      -0.3873     
C           -76.5888    6.40765     -0.68013    
C           -75.93989   7.7608      -0.97296    
C           -75.29097   9.11394     -1.2658     
C           -82.50517   -4.36086    0.31755     
C           -83.23021   -4.30422    -1.02742    
C           -83.95526   -4.24759    -2.37239    
C           -84.6803    -4.19095    -3.71736    
C           -85.40535   -4.13431    -5.06233    
C           -86.13039   -4.07767    -6.4073     
C           -86.85544   -4.02103    -7.75227    
C           -87.58048   -3.96439    -9.09724    
C           -87.0468    -14.6992    3.87648     
C           -87.69577   -16.05229   4.16944     
C           -88.34474   -17.40537   4.46241     
C           -88.99372   -18.75846   4.75538     
C           -89.64269   -20.11155   5.04835     
C           -90.29167   -21.46463   5.34131     
C           -90.94064   -22.81772   5.63428     
C           -91.58962   -24.17081   5.92725     
C           -92.23859   -25.52389   6.22022     
C           -92.88756   -26.87698   6.51319     
C           -85.67264   -13.40273   4.9284      
C           -84.94746   -13.45936   6.2733      
C           -84.22227   -13.51598   7.6182      
C           -83.49709   -13.5726    8.96309     
C           -82.77191   -13.62922   10.30799    
C           -82.04673   -13.68584   11.65288    
C           -81.32154   -13.74246   12.99778    
C           -80.59636   -13.79908   14.34267    
C           -68.99309   -7.52598    1.97408     
C           -69.56719   -6.2963     1.66633     
S           -70.25819   -8.7325     2.21812     
H           -71.574     -5.45309    1.38351     
H           -68.96236   -5.41426    1.47837     
C           -70.97171   -6.32367    1.6204      
C           -71.52262   -7.56681    1.88971     
C           -64.27483   -6.54775    1.90824     
C           -65.30347   -7.47797    2.08932     
N           -64.88557   -5.3316     1.60349     
C           -66.31475   -5.4487     1.5809      
C           -65.54368   -8.86759    2.40454     
O           -64.80505   -9.81909    2.65129     
O           -67.05347   -4.49764    1.3329      
C           -67.58925   -10.26921   2.66063     
C           -64.26944   -4.04683    1.32544     
C           -63.62053   -2.69368    1.03262     
H           -64.78632   -4.00645    0.36664     
H           -63.75258   -4.08721    2.28426     
H           -67.07228   -10.30957   3.61939     
C           -68.23823   -11.62229   2.9536      
H           -68.10622   -10.22884   1.70188     
N           -66.97306   -8.98447    2.38247     
C           -66.55499   -6.83829    1.89682     
C           -67.58351   -7.76834    2.07806     
C           -60.33528   -6.75157    2.09031     
C           -60.88791   -7.99476    2.36142     
S           -61.60082   -5.58084    1.78032     
H           -62.89679   -8.90318    2.50312     
H           -60.28583   -8.87038    2.57965     
C           -62.29172   -8.02024    2.32024     
C           -62.86593   -6.78958    2.0142      
C           -54.47879   -5.17146    1.88971     
C           -55.02523   -6.39007    2.24014     
S           -55.73164   -3.98238    1.48626     
C           -56.43913   -6.37624    2.17863     
C           -56.98775   -5.15807    1.77857     
H           -58.99478   -4.29522    1.40127     
H           -54.42522   -7.2524     2.50716     
S           -57.69145   -7.55223    2.47459     
C           -58.39832   -5.14961    1.70044     
C           -58.94742   -6.37203    2.04595     
C           -62.97162   -1.34054    0.73978     
C           -62.3227    0.01261     0.44695     
C           -61.67378   1.36575     0.15412     
C           -61.02487   2.71889     -0.13871    
C           -60.37595   4.07204     -0.43154    
C           -59.72703   5.42518     -0.72438    
C           -59.07812   6.77832     -1.01721    
C           -58.42921   8.13147     -1.31004    
C           -57.78029   9.48462     -1.60287    
C           -57.13138   10.83776    -1.8957     
C           -64.34557   -2.63704    -0.31236    
C           -65.07061   -2.5804     -1.65733    
C           -65.79566   -2.52377    -3.0023     
C           -66.52071   -2.46713    -4.34727    
C           -67.24575   -2.41049    -5.69224    
C           -67.9708    -2.35385    -7.03721    
C           -68.69584   -2.29721    -8.38218    
C           -69.42088   -2.24057    -9.72714    
C           -68.8872    -12.97538   3.24657     
C           -69.53617   -14.32847   3.53954     
C           -70.18515   -15.68155   3.83251     
C           -70.83412   -17.03464   4.12547     
C           -71.4831    -18.38773   4.41844     
C           -72.13207   -19.74081   4.71141     
C           -72.78105   -21.0939    5.00438     
C           -73.43002   -22.44699   5.29735     
C           -74.07899   -23.80007   5.59031     
C           -74.72797   -25.15316   5.88328     
C           -67.51304   -11.67891   4.2985      
C           -66.78786   -11.73554   5.64339     
C           -66.06268   -11.79216   6.98829     
C           -65.3375    -11.84878   8.33319     
C           -64.61231   -11.9054    9.67808     
C           -63.88713   -11.96202   11.02298    
C           -63.16195   -12.01864   12.36787    
C           -62.43676   -12.07526   13.71277    
C           -50.8335    -5.80216    1.34417     
C           -51.40759   -4.57248    1.03643     
S           -52.0986    -7.00868    1.58821     
H           -53.41441   -3.72927    0.7536      
H           -50.80277   -3.69044    0.84847     
C           -52.81211   -4.59985    0.9905      
C           -53.36302   -5.84299    1.25981     
C           -46.11524   -4.82393    1.27834     
C           -47.14388   -5.75415    1.45941     
N           -46.72597   -3.60778    0.97358     
C           -48.15516   -3.72488    0.951       
C           -47.38408   -7.14377    1.77463     
O           -46.64545   -8.09527    2.02139     
O           -48.89388   -2.77382    0.703       
C           -49.42966   -8.54539    2.03073     
C           -46.10985   -2.32301    0.69554     
C           -45.46094   -0.96986    0.40271     
H           -46.62672   -2.28263    -0.26327    
H           -45.59298   -2.36339    1.65435     
H           -48.91268   -8.58575    2.98949     
C           -50.07863   -9.89847    2.3237      
H           -49.94663   -8.50502    1.07198     
N           -48.81347   -7.26065    1.75256     
C           -48.39539   -5.11447    1.26692     
C           -49.42391   -6.04452    1.44816     
C           -42.17568   -5.02775    1.46041     
C           -42.72831   -6.27094    1.73152     
S           -43.44122   -3.85702    1.15041     
H           -44.73719   -7.17936    1.87321     
H           -42.12624   -7.14656    1.94974     
C           -44.13212   -6.29642    1.69033     
C           -44.70633   -5.06576    1.3843      
C           -36.31919   -3.44764    1.25981     
C           -36.86563   -4.66625    1.61023     
S           -37.57204   -2.25856    0.85635     
C           -38.27954   -4.65242    1.54872     
C           -38.82816   -3.43425    1.14867     
H           -40.83518   -2.5714     0.77136     
H           -36.26562   -5.52858    1.87726     
S           -39.53185   -5.82841    1.84469     
C           -40.23872   -3.42579    1.07053     
C           -40.78782   -4.64821    1.41605     
C           -44.81202   0.38328     0.10988     
C           -44.1631    1.73643     -0.18295    
C           -43.51419   3.08957     -0.47578    
C           -42.86527   4.44271     -0.76862    
C           -42.21635   5.79586     -1.06145    
C           -41.56744   7.149       -1.35428    
C           -40.91852   8.50215     -1.64711    
C           -40.26961   9.85529     -1.93994    
C           -39.6207    11.20844    -2.23277    
C           -38.97178   12.56158    -2.52561    
C           -46.18597   -0.91322    -0.94226    
C           -46.91102   -0.85658    -2.28723    
C           -47.63607   -0.79995    -3.6322     
C           -48.36111   -0.74331    -4.97717    
C           -49.08616   -0.68667    -6.32214    
C           -49.8112    -0.63003    -7.66711    
C           -50.53624   -0.57339    -9.01208    
C           -51.26129   -0.51675    -10.35705   
C           -50.7276    -11.25156   2.61667     
C           -51.37658   -12.60465   2.90963     
C           -52.02555   -13.95773   3.2026      
C           -52.67453   -15.31082   3.49557     
C           -53.3235    -16.66391   3.78854     
C           -53.97247   -18.01699   4.08151     
C           -54.62145   -19.37008   4.37447     
C           -55.27042   -20.72317   4.66744     
C           -55.9194    -22.07625   4.96041     
C           -56.56837   -23.42934   5.25338     
C           -49.35345   -9.95509    3.66859     
C           -48.62826   -10.01172   5.01349     
C           -47.90308   -10.06834   6.35839     
C           -47.1779    -10.12496   7.70328     
C           -46.45272   -10.18158   9.04818     
C           -45.72753   -10.2382    10.39307    
C           -45.00235   -10.29482   11.73797    
C           -44.27717   -10.35144   13.08287    
C           -32.6739    -4.07834    0.71427     
C           -33.248     -2.84866    0.40652     
S           -33.939     -5.28486    0.95831     
H           -35.25481   -2.00545    0.1237      
H           -32.64317   -1.96662    0.21856     
C           -34.65252   -2.87603    0.36059     
C           -35.20343   -4.11917    0.6299      
C           -27.95564   -3.1001     0.64843     
C           -28.98428   -4.03033    0.82951     
N           -28.56638   -1.88396    0.34368     
C           -29.99556   -2.00106    0.32109     
C           -29.22449   -5.41995    1.14473     
O           -28.48585   -6.37145    1.39148     
O           -30.73428   -1.05       0.07309     
C           -31.27006   -6.82157    1.40083     
C           -27.95025   -0.59919    0.06563     
C           -27.30134   0.75396     -0.22719    
H           -28.46713   -0.55881    -0.89317    
H           -27.43339   -0.63957    1.02445     
H           -30.75309   -6.86193    2.35958     
C           -31.91903   -8.17465    1.69379     
H           -31.78703   -6.7812     0.44207     
N           -30.65387   -5.53683    1.12266     
C           -30.23579   -3.39065    0.63701     
C           -31.26431   -4.3207     0.81825     
C           -24.01609   -3.30393    0.8305      
C           -24.56872   -4.54712    1.10162     
S           -25.28162   -2.1332     0.52051     
H           -26.5776    -5.45554    1.24331     
H           -23.96664   -5.42273    1.31984     
C           -25.97252   -4.5726     1.06043     
C           -26.54674   -3.34194    0.75439     
C           -18.1596    -1.72382    0.6299      
C           -18.70603   -2.94243    0.98033     
S           -19.41245   -0.53474    0.22645     
C           -20.11994   -2.9286     0.91882     
C           -20.66856   -1.71043    0.51876     
H           -22.67559   -0.84758    0.14146     
H           -18.10602   -3.80476    1.24735     
S           -21.37226   -4.10459    1.21478     
C           -22.07913   -1.70197    0.44063     
C           -22.62823   -2.92439    0.78615     
C           -26.65242   2.1071      -0.52002    
C           -26.00351   3.46025     -0.81286    
C           -25.35459   4.81339     -1.10569    
C           -24.70568   6.16653     -1.39852    
C           -24.05676   7.51968     -1.69135    
C           -23.40784   8.87282     -1.98419    
C           -22.75893   10.22597    -2.27702    
C           -22.11002   11.57911    -2.56985    
C           -21.4611    12.93226    -2.86268    
C           -20.81218   14.2854     -3.15551    
C           -28.02638   0.8106      -1.57217    
C           -28.75142   0.86724     -2.91714    
C           -29.47647   0.92387     -4.2621     
C           -30.20151   0.98051     -5.60707    
C           -30.92656   1.03715     -6.95204    
C           -31.6516    1.09379     -8.29701    
C           -32.37665   1.15043     -9.64198    
C           -33.10169   1.20707     -10.98695   
C           -32.56801   -9.52774    1.98676     
C           -33.21698   -10.88083   2.27973     
C           -33.86596   -12.23391   2.5727      
C           -34.51493   -13.587     2.86567     
C           -35.1639    -14.94009   3.15863     
C           -35.81288   -16.29317   3.4516      
C           -36.46185   -17.64626   3.74457     
C           -37.11083   -18.99935   4.03754     
C           -37.7598    -20.35243   4.3305      
C           -38.40878   -21.70552   4.62347     
C           -31.19385   -8.23127    3.03869     
C           -30.46867   -8.2879     4.38359     
C           -29.74349   -8.34452    5.72848     
C           -29.0183    -8.40114    7.07338     
C           -28.29312   -8.45776    8.41827     
C           -27.56794   -8.51438    9.76317     
C           -26.84276   -8.571      11.10807    
C           -26.11757   -8.62762    12.45296    
C           -14.51431   -2.35452    0.08436     
C           -15.0884    -1.12484    -0.22338    
S           -15.7794    -3.56104    0.32841     
H           -17.09521   -0.28163    -0.50621    
H           -14.48357   -0.2428     -0.41134    
C           -16.49292   -1.15221    -0.26931    
C           -17.04383   -2.39535    -0.0        
C           -9.79605    -1.37628    0.01853     
C           -10.82469   -2.30651    0.1996      
N           -10.40678   -0.16014    -0.28623    
C           -11.83596   -0.27724    -0.30881    
C           -11.06489   -3.69613    0.51482     
O           -10.32626   -4.64763    0.76158     
O           -12.57468   0.67382     -0.55681    
C           -13.11046   -5.09775    0.77092     
C           -9.79065    1.12463     -0.56427    
C           -9.14175    2.47778     -0.8571     
H           -10.30753   1.16501     -1.52308    
H           -9.27379    1.08425     0.39454     
H           -12.59349   -5.13811    1.72968     
C           -13.75944   -6.45083    1.06389     
H           -13.62744   -5.05738    -0.18783    
N           -12.49427   -3.81301    0.49275     
C           -12.0762    -1.66683    0.00711     
C           -13.10472   -2.59688    0.18835     
C           -5.85649    -1.58011    0.2006      
C           -6.40912    -2.8233     0.47171     
S           -7.12203    -0.40938    -0.1094     
H           -8.418      -3.73172    0.6134      
H           -5.80705    -3.69891    0.68994     
C           -7.81293    -2.84878    0.43052     
C           -8.38714    -1.61812    0.12449     
C           0.0         0.0         0.0         
C           -0.54644    -1.21861    0.35042     
S           -1.25285    1.18908     -0.40346    
C           -1.96034    -1.20478    0.28892     
C           -2.50896    0.01339     -0.11114    
H           -4.51599    0.87624     -0.48844    
H           0.05357     -2.08094    0.61745     
S           -3.21266    -2.38077    0.58488     
C           -3.91953    0.02185     -0.18927    
C           -4.46863    -1.20057    0.15624     
C           -8.49283    3.83092     -1.14993    
C           -7.84391    5.18407     -1.44276    
C           -7.195      6.53721     -1.73559    
C           -6.54608    7.89035     -2.02843    
C           -5.89716    9.2435      -2.32126    
C           -5.24825    10.59664    -2.61409    
C           -4.59933    11.94979    -2.90692    
C           -3.95042    13.30293    -3.19975    
C           -3.3015     14.65608    -3.49258    
C           -2.65259    16.00922    -3.78541    
C           -9.86678    2.53442     -2.20207    
C           -10.59183   2.59106     -3.54704    
C           -11.31687   2.64769     -4.89201    
C           -12.04192   2.70433     -6.23698    
C           -12.76696   2.76097     -7.58195    
C           -13.49201   2.81761     -8.92692    
C           -14.21705   2.87425     -10.27189   
C           -14.9421    2.93089     -11.61686   
C           -14.40841   -7.80392    1.35686     
C           -15.05739   -9.15701    1.64983     
C           -15.70636   -10.51009   1.94279     
C           -16.35533   -11.86318   2.23576     
C           -17.00431   -13.21627   2.52873     
C           -17.65328   -14.56935   2.8217      
C           -18.30226   -15.92244   3.11466     
C           -18.95123   -17.27553   3.40763     
C           -19.60021   -18.62861   3.7006      
C           -20.24918   -19.9817    3.99357     
C           -13.03426   -6.50745    2.40879     
C           -12.30907   -6.56408    3.75368     
C           -11.58389   -6.6207     5.09858     
C           -10.85871   -6.67732    6.44347     
C           -10.13352   -6.73394    7.78837     
C           -9.40834    -6.79056    9.13327     
C           -8.68316    -6.84718    10.47816    
C           -7.95798    -6.9038     11.82306    
H           -181.72721  -14.91372   5.66914     
H           1.09        0.0         0.0         
