80

C           -14.70305   0.19049     0.00671     
C           -15.05364   1.53707     0.02105     
S           -16.15944   -0.80679    -0.00218    
H           -16.88231   2.75125     0.01535     
H           -14.30406   2.32271     0.02902     
C           -16.44136   1.76012     0.01709     
C           -17.20085   0.60067     -0.0        
C           -9.88637    0.34121     0.01809     
C           -11.06164   -0.41696    0.00615     
N           -10.27541   1.68035     0.03333     
C           -11.70311   1.8162      0.03141     
C           -11.54077   -1.78012    -0.01179    
O           -10.97958   -2.87407    -0.0244     
O           -12.26444   2.91005     0.04271     
C           -13.79967   -2.83441    -0.02938    
C           -9.44442    2.87063     0.04969     
C           -8.56922    4.12425     0.06694     
H           -9.93848    3.22797     -0.85381    
H           -8.95038    2.51328     0.9532      
H           -13.30552   -3.19175    0.87407     
C           -14.67492   -4.088      -0.04648    
H           -14.29382   -2.47707    -0.93283    
N           -12.96863   -1.64415    -0.01315    
C           -12.18226   0.45291     0.01415     
C           -13.35739   -0.30516    0.00242     
C           -6.04282    -0.56537    0.01385     
C           -6.80402    -1.72501    -0.00144    
S           -7.0846     0.84265     0.03513     
H           -8.94068    -2.28665    -0.01348    
H           -6.364      -2.71641    -0.01902    
C           -8.19075    -1.50142    -0.00037    
C           -8.5413     -0.15429    0.01586     
C           0.0         0.0         0.0         
C           -0.75153    -1.15631    0.06734     
S           -1.02533    1.44594     -0.06546    
C           -2.14125    -0.88856    0.05842     
C           -2.46796    0.46496     -0.02044    
H           -4.29266    1.72071     -0.11312    
H           -0.31166    -2.14644    0.10036     
S           -3.58022    -1.87134    0.10678     
C           -3.85518    0.73102     -0.04689    
C           -4.60995    -0.42729    0.01487     
C           -7.69402    5.37787     0.08419     
C           -6.81881    6.63149     0.10143     
C           -5.94361    7.8851      0.11867     
C           -5.0684     9.13872     0.13592     
C           -4.19319    10.39234    0.15316     
C           -3.31799    11.64596    0.17041     
C           -2.44278    12.89957    0.18765     
C           -1.56758    14.1532     0.2049      
C           -0.69237    15.40681    0.22214     
C           0.18283     16.66043    0.23939     
C           -9.26225    4.62552     -1.20045    
C           -9.95528    5.12679     -2.46784    
C           -10.64832   5.62805     -3.73523    
C           -11.34136   6.12932     -5.00262    
C           -12.03439   6.63059     -6.27001    
C           -12.72742   7.13186     -7.53739    
C           -13.42046   7.63313     -8.80478    
C           -14.11349   8.1344      -10.07217   
C           -15.55018   -5.34158    -0.06357    
C           -16.42543   -6.59517    -0.08067    
C           -17.30069   -7.84875    -0.09777    
C           -18.17594   -9.10234    -0.11486    
C           -19.05119   -10.35593   -0.13196    
C           -19.92645   -11.60951   -0.14906    
C           -20.8017    -12.8631    -0.16615    
C           -21.67696   -14.11669   -0.18325    
C           -22.55221   -15.37027   -0.20035    
C           -23.42747   -16.62386   -0.21744    
C           -13.98175   -4.58925    1.22084     
C           -13.28858   -5.09051    2.48816     
C           -12.5954    -5.59177    3.75547     
C           -11.90223   -6.09303    5.02279     
C           -11.20905   -6.59429    6.29011     
C           -10.51588   -7.09554    7.55742     
C           -9.82271    -7.5968     8.82474     
C           -9.12953    -8.09806    10.09206    
H           -18.29085   0.60067     -0.0        
H           1.09        0.0         0.0         
