83

C           -4.4267     0.13416     0.13694     
C           -5.15089    -0.90138    -0.48435    
C           -5.14273    1.14742     0.80574     
C           -6.52398    1.06885     0.8424      
C           -7.26821    0.01489     0.25034     
C           -6.54167    -0.96933    -0.43556    
N           -7.38858    1.98733     1.43183     
C           -8.70689    1.62123     1.23282     
C           -8.69149    0.30629     0.46464     
O           -9.6526     2.26697     1.6638      
C           -6.99427    3.18713     2.13882     
C           -9.83756    -0.38597    0.13815     
C           -11.25977   -0.02497    0.20075     
C           -12.00504   -1.15709    -0.22093    
N           -11.14278   -2.2081     -0.52163    
C           -9.82434    -1.82619    -0.35734    
C           -11.98288   1.14155     0.48892     
O           -8.8802     -2.57929    -0.55375    
C           -11.53941   -3.52406    -0.97566    
H           -7.05919    -1.78299    -0.91876    
H           -4.62092    1.9719      1.27289     
H           -4.61636    -1.66008    -1.04689    
H           -13.90904   -2.06082    -0.64871    
H           -11.46385   2.03562     0.79646     
H           -13.90517   2.06675     0.58771     
H           -6.74795    2.58916     3.01623     
H           -7.24059    3.7851      1.2614      
C           -6.57772    4.45461     2.88568     
H           -11.79297   -3.11082    -1.95189    
C           -11.95837   -4.91413    -1.45525    
H           -11.28585   -3.9373     0.00058     
C           -13.37273   1.14248     0.38728     
C           -13.38548   -1.17227    -0.32177    
C           -14.09785   -0.0        0.0         
C           0.0         0.0         0.0         
C           -0.69319    1.26293     0.0041      
C           -0.815      -1.11614    0.05328     
N           -0.11665    2.46882     -0.06138    
N           -2.62474    2.5773      0.02233     
S           -1.32631    3.57833     -0.05818    
H           -2.77231    -1.99303    0.17639     
H           -0.35352    -2.09757    0.0962      
C           -2.23184    -1.05489    0.1003      
C           -2.15123    1.32599     0.05274     
C           -2.94938    0.1275      0.09814     
C           -6.16116    5.7221      3.63254     
C           -5.74461    6.98958     4.37941     
C           -5.32806    8.25707     5.12628     
C           -4.9115     9.52455     5.87314     
C           -4.49495    10.79204    6.62001     
C           -4.0784     12.05952    7.36688     
C           -3.66184    13.32701    8.11374     
C           -3.24529    14.59449    8.86061     
C           -2.82874    15.86198    9.60747     
C           -2.41219    17.12946    10.35433    
C           -6.2322     3.61582     4.11649     
C           -5.88668    2.77702     5.34728     
C           -5.54116    1.93821     6.57809     
C           -5.19564    1.09941     7.80888     
C           -4.85012    0.26061     9.03969     
C           -4.5046     -0.57819    10.27048    
C           -4.15909    -1.417      11.50129    
C           -3.81356    -2.2558     12.73208    
C           -12.37734   -6.3042     -1.93485    
C           -12.7963    -7.69427    -2.41444    
C           -13.21527   -9.08434    -2.89404    
C           -13.63423   -10.47441   -3.37364    
C           -14.0532    -11.86448   -3.85323    
C           -14.47216   -13.25456   -4.33283    
C           -14.89112   -14.64463   -4.81242    
C           -15.31009   -16.0347    -5.29202    
C           -15.72905   -17.42477   -5.77161    
C           -16.14802   -18.81484   -6.25121    
C           -12.31406   -4.33446    -2.82467    
C           -12.66974   -3.75478    -4.19409    
C           -13.02543   -3.17511    -5.56351    
C           -13.38112   -2.59544    -6.93293    
C           -13.7368    -2.01576    -8.30235    
C           -14.09249   -1.43609    -9.67177    
C           -14.44817   -0.85642    -11.04118   
C           -14.80386   -0.27674    -12.4106    
H           -15.18785   -0.0        0.0         
H           1.09        0.0         0.0         
