812

C           -144.6088   0.13416     0.13694     
C           -145.33299  -0.90138    -0.48435    
C           -145.32483  1.14742     0.80574     
C           -146.70608  1.06885     0.8424      
C           -147.45031  0.01489     0.25034     
C           -146.72377  -0.96933    -0.43556    
N           -147.57067  1.98733     1.43183     
C           -148.88898  1.62123     1.23282     
C           -148.87358  0.30629     0.46464     
O           -149.8347   2.26697     1.6638      
C           -147.17636  3.18713     2.13882     
C           -150.01966  -0.38597    0.13815     
C           -151.44186  -0.02497    0.20075     
C           -152.18714  -1.15709    -0.22093    
N           -151.32488  -2.2081     -0.52163    
C           -150.00643  -1.82619    -0.35734    
C           -152.16498  1.14155     0.48892     
O           -149.06229  -2.57929    -0.55375    
C           -151.7215   -3.52406    -0.97566    
H           -147.24129  -1.78299    -0.91876    
H           -144.80302  1.9719      1.27289     
H           -144.79845  -1.66008    -1.04689    
H           -154.09113  -2.06082    -0.64871    
H           -151.64595  2.03562     0.79646     
H           -154.08727  2.06675     0.58771     
H           -146.93005  2.58916     3.01623     
H           -147.42268  3.7851      1.2614      
C           -146.75981  4.45461     2.88568     
H           -151.97507  -3.11082    -1.95189    
C           -152.14047  -4.91413    -1.45525    
H           -151.46794  -3.9373     0.00058     
C           -153.55483  1.14248     0.38728     
C           -153.56758  -1.17227    -0.32177    
C           -154.27994  0.0         0.0         
C           -140.1821   0.0         0.0         
C           -140.87528  1.26293     0.0041      
C           -140.99709  -1.11614    0.05328     
N           -140.29874  2.46882     -0.06138    
N           -142.80684  2.5773      0.02233     
S           -141.5084   3.57833     -0.05818    
H           -142.95441  -1.99303    0.17639     
H           -140.53562  -2.09757    0.0962      
C           -142.41393  -1.05489    0.1003      
C           -142.33332  1.32599     0.05274     
C           -143.13147  0.1275      0.09814     
C           -146.34326  5.7221      3.63254     
C           -145.92671  6.98958     4.37941     
C           -145.51015  8.25707     5.12628     
C           -145.0936   9.52455     5.87314     
C           -144.67704  10.79204    6.62001     
C           -144.26049  12.05952    7.36688     
C           -143.84394  13.32701    8.11374     
C           -143.42739  14.59449    8.86061     
C           -143.01083  15.86198    9.60747     
C           -142.59428  17.12946    10.35433    
C           -146.4143   3.61582     4.11649     
C           -146.06877  2.77702     5.34728     
C           -145.72326  1.93821     6.57809     
C           -145.37774  1.09941     7.80888     
C           -145.03222  0.26061     9.03969     
C           -144.6867   -0.57819    10.27048    
C           -144.34118  -1.417      11.50129    
C           -143.99566  -2.2558     12.73208    
C           -152.55943  -6.3042     -1.93485    
C           -152.9784   -7.69427    -2.41444    
C           -153.39736  -9.08434    -2.89404    
C           -153.81633  -10.47441   -3.37364    
C           -154.23529  -11.86448   -3.85323    
C           -154.65426  -13.25456   -4.33283    
C           -155.07322  -14.64463   -4.81242    
C           -155.49218  -16.0347    -5.29202    
C           -155.91115  -17.42477   -5.77161    
C           -156.33011  -18.81484   -6.25121    
C           -152.49615  -4.33446    -2.82467    
C           -152.85184  -3.75478    -4.19409    
C           -153.20753  -3.17511    -5.56351    
C           -153.56321  -2.59544    -6.93293    
C           -153.9189   -2.01576    -8.30235    
C           -154.27458  -1.43609    -9.67177    
C           -154.63027  -0.85642    -11.04118   
C           -154.98595  -0.27674    -12.4106    
C           -129.03301  0.13334     0.13773     
C           -129.7572   -0.89849    -0.48969    
C           -129.74904  1.14262     0.81253     
C           -131.13029  1.06384     0.84873     
C           -131.87452  0.0134      0.25042     
C           -131.14798  -0.96673    -0.4413     
N           -131.99488  1.9788      1.44359     
C           -133.31319  1.61389     1.24241     
C           -133.29779  0.30353     0.46645     
O           -134.25891  2.25706     1.67722     
C           -131.60057  3.17438     2.15769     
C           -134.44387  -0.38679    0.13586     
C           -135.86607  -0.02616    0.2006      
C           -136.61135  -1.15576    -0.2278     
N           -135.74909  -2.20497    -0.53472    
C           -134.43064  -1.82404    -0.36817    
C           -136.58919  1.13863     0.49569     
O           -133.48651  -2.57595    -0.56905    
C           -136.14572  -3.51821    -0.99655    
H           -131.6655   -1.77751    -0.92932    
H           -129.22723  1.96431     1.28457     
H           -129.22266  -1.65384    -1.05672    
H           -138.51534  -2.05693    -0.66093    
H           -136.07016  2.03086     0.80853     
H           -138.51148  2.06323     0.59996     
H           -131.35426  2.57122     3.03154     
H           -131.84689  3.77755     1.28383     
C           -131.18402  4.43741     2.91205     
H           -136.39928  -3.09918    -1.97031    
C           -136.56468  -4.90541    -1.48438    
H           -135.89215  -3.93723    -0.02278    
C           -137.97904  1.14017     0.39405     
C           -137.99179  -1.17035    -0.32872    
C           -138.70416  0.0         0.0         
C           -124.60631  0.0         0.0         
C           -125.29949  1.26288     0.01159     
C           -125.42131  -1.11643    0.04666     
N           -124.72295  2.46914     -0.04674    
N           -127.23105  2.57712     0.03762     
S           -125.93261  3.57861     -0.03695    
H           -127.37862  -1.99404    0.16456     
H           -124.95983  -2.0981     0.08376     
C           -126.83814  -1.05547    0.09404     
C           -126.75753  1.32566     0.0606      
C           -127.55568  0.12691     0.0989      
C           -130.76747  5.70045     3.66643     
C           -130.35092  6.96348     4.4208      
C           -129.93436  8.22651     5.17517     
C           -129.51781  9.48954     5.92954     
C           -129.10126  10.75258    6.68392     
C           -128.6847   12.0156     7.43829     
C           -128.26815  13.27864    8.19266     
C           -127.8516   14.54167    8.94703     
C           -127.43504  15.80471    9.7014      
C           -127.01849  17.06773    10.45577    
C           -130.83851  3.59133     4.13786     
C           -130.49298  2.74525     5.36366     
C           -130.14747  1.89915     6.58947     
C           -129.80195  1.05307     7.81527     
C           -129.45643  0.20698     9.04107     
C           -129.11091  -0.63911    10.26687    
C           -128.76539  -1.4852     11.49268    
C           -128.41987  -2.33129    12.71848    
C           -136.98364  -6.29261    -1.97221    
C           -137.40261  -7.67981    -2.46005    
C           -137.82157  -9.06701    -2.94788    
C           -138.24054  -10.45422   -3.43571    
C           -138.6595   -11.84142   -3.92355    
C           -139.07847  -13.22862   -4.41138    
C           -139.49743  -14.61582   -4.89921    
C           -139.9164   -16.00302   -5.38705    
C           -140.33536  -17.39022   -5.87488    
C           -140.75432  -18.77742   -6.36272    
C           -136.92037  -4.31762    -2.85034    
C           -137.27605  -3.72984    -4.21629    
C           -137.63174  -3.14205    -5.58225    
C           -137.98742  -2.55426    -6.9482     
C           -138.34311  -1.96647    -8.31416    
C           -138.69879  -1.37869    -9.68011    
C           -139.05448  -0.7909     -11.04607   
C           -139.41017  -0.20311    -12.41203   
C           -113.45722  0.13334     0.13773     
C           -114.18141  -0.89849    -0.48969    
C           -114.17325  1.14262     0.81253     
C           -115.5545   1.06384     0.84873     
C           -116.29873  0.0134      0.25042     
C           -115.57219  -0.96673    -0.4413     
N           -116.4191   1.9788      1.44359     
C           -117.73741  1.61389     1.24241     
C           -117.722    0.30353     0.46645     
O           -118.68312  2.25706     1.67722     
C           -116.02479  3.17438     2.15769     
C           -118.86808  -0.38679    0.13586     
C           -120.29029  -0.02616    0.2006      
C           -121.03556  -1.15576    -0.2278     
N           -120.1733   -2.20497    -0.53472    
C           -118.85485  -1.82404    -0.36817    
C           -121.0134   1.13863     0.49569     
O           -117.91072  -2.57595    -0.56905    
C           -120.56993  -3.51821    -0.99655    
H           -116.08971  -1.77751    -0.92932    
H           -113.65144  1.96431     1.28457     
H           -113.64688  -1.65384    -1.05672    
H           -122.93956  -2.05693    -0.66093    
H           -120.49437  2.03086     0.80853     
H           -122.93569  2.06323     0.59996     
H           -115.77847  2.57122     3.03154     
H           -116.2711   3.77755     1.28383     
C           -115.60824  4.43741     2.91205     
H           -120.82349  -3.09918    -1.97031    
C           -120.98889  -4.90541    -1.48438    
H           -120.31637  -3.93723    -0.02278    
C           -122.40325  1.14017     0.39405     
C           -122.416    -1.17035    -0.32872    
C           -123.12837  0.0         0.0         
C           -109.03052  0.0         0.0         
C           -109.7237   1.26288     0.01159     
C           -109.84552  -1.11643    0.04666     
N           -109.14716  2.46914     -0.04674    
N           -111.65526  2.57712     0.03762     
S           -110.35683  3.57861     -0.03695    
H           -111.80283  -1.99404    0.16456     
H           -109.38404  -2.0981     0.08376     
C           -111.26236  -1.05547    0.09404     
C           -111.18175  1.32566     0.0606      
C           -111.97989  0.12691     0.0989      
C           -115.19168  5.70045     3.66643     
C           -114.77513  6.96348     4.4208      
C           -114.35857  8.22651     5.17517     
C           -113.94202  9.48954     5.92954     
C           -113.52547  10.75258    6.68392     
C           -113.10892  12.0156     7.43829     
C           -112.69236  13.27864    8.19266     
C           -112.27581  14.54167    8.94703     
C           -111.85926  15.80471    9.7014      
C           -111.4427   17.06773    10.45577    
C           -115.26272  3.59133     4.13786     
C           -114.9172   2.74525     5.36366     
C           -114.57168  1.89915     6.58947     
C           -114.22616  1.05307     7.81527     
C           -113.88064  0.20698     9.04107     
C           -113.53512  -0.63911    10.26687    
C           -113.18961  -1.4852     11.49268    
C           -112.84408  -2.33129    12.71848    
C           -121.40786  -6.29261    -1.97221    
C           -121.82682  -7.67981    -2.46005    
C           -122.24579  -9.06701    -2.94788    
C           -122.66475  -10.45422   -3.43571    
C           -123.08371  -11.84142   -3.92355    
C           -123.50268  -13.22862   -4.41138    
C           -123.92164  -14.61582   -4.89921    
C           -124.34061  -16.00302   -5.38705    
C           -124.75957  -17.39022   -5.87488    
C           -125.17854  -18.77742   -6.36272    
C           -121.34458  -4.31762    -2.85034    
C           -121.70026  -3.72984    -4.21629    
C           -122.05595  -3.14205    -5.58225    
C           -122.41163  -2.55426    -6.9482     
C           -122.76732  -1.96647    -8.31416    
C           -123.12301  -1.37869    -9.68011    
C           -123.47869  -0.7909     -11.04607   
C           -123.83438  -0.20311    -12.41203   
C           -97.88143   0.13334     0.13773     
C           -98.60563   -0.89849    -0.48969    
C           -98.59746   1.14262     0.81253     
C           -99.97871   1.06384     0.84873     
C           -100.72294  0.0134      0.25042     
C           -99.9964    -0.96673    -0.4413     
N           -100.84331  1.9788      1.44359     
C           -102.16162  1.61389     1.24241     
C           -102.14622  0.30353     0.46645     
O           -103.10733  2.25706     1.67722     
C           -100.449    3.17438     2.15769     
C           -103.29229  -0.38679    0.13586     
C           -104.7145   -0.02616    0.2006      
C           -105.45977  -1.15576    -0.2278     
N           -104.59751  -2.20497    -0.53472    
C           -103.27907  -1.82404    -0.36817    
C           -105.43761  1.13863     0.49569     
O           -102.33493  -2.57595    -0.56905    
C           -104.99414  -3.51821    -0.99655    
H           -100.51392  -1.77751    -0.92932    
H           -98.07565   1.96431     1.28457     
H           -98.07109   -1.65384    -1.05672    
H           -107.36377  -2.05693    -0.66093    
H           -104.91858  2.03086     0.80853     
H           -107.3599   2.06323     0.59996     
H           -100.20268  2.57122     3.03154     
H           -100.69532  3.77755     1.28383     
C           -100.03245  4.43741     2.91205     
H           -105.2477   -3.09918    -1.97031    
C           -105.4131   -4.90541    -1.48438    
H           -104.74058  -3.93723    -0.02278    
C           -106.82746  1.14017     0.39405     
C           -106.84021  -1.17035    -0.32872    
C           -107.55258  0.0         0.0         
C           -93.45473   0.0         0.0         
C           -94.14792   1.26288     0.01159     
C           -94.26973   -1.11643    0.04666     
N           -93.57138   2.46914     -0.04674    
N           -96.07947   2.57712     0.03762     
S           -94.78104   3.57861     -0.03695    
H           -96.22704   -1.99404    0.16456     
H           -93.80826   -2.0981     0.08376     
C           -95.68657   -1.05547    0.09404     
C           -95.60596   1.32566     0.0606      
C           -96.40411   0.12691     0.0989      
C           -99.61589   5.70045     3.66643     
C           -99.19934   6.96348     4.4208      
C           -98.78279   8.22651     5.17517     
C           -98.36623   9.48954     5.92954     
C           -97.94968   10.75258    6.68392     
C           -97.53313   12.0156     7.43829     
C           -97.11657   13.27864    8.19266     
C           -96.70002   14.54167    8.94703     
C           -96.28347   15.80471    9.7014      
C           -95.86692   17.06773    10.45577    
C           -99.68693   3.59133     4.13786     
C           -99.34141   2.74525     5.36366     
C           -98.99589   1.89915     6.58947     
C           -98.65037   1.05307     7.81527     
C           -98.30485   0.20698     9.04107     
C           -97.95933   -0.63911    10.26687    
C           -97.61382   -1.4852     11.49268    
C           -97.2683    -2.33129    12.71848    
C           -105.83207  -6.29261    -1.97221    
C           -106.25103  -7.67981    -2.46005    
C           -106.67     -9.06701    -2.94788    
C           -107.08896  -10.45422   -3.43571    
C           -107.50793  -11.84142   -3.92355    
C           -107.92689  -13.22862   -4.41138    
C           -108.34585  -14.61582   -4.89921    
C           -108.76482  -16.00302   -5.38705    
C           -109.18378  -17.39022   -5.87488    
C           -109.60275  -18.77742   -6.36272    
C           -105.76879  -4.31762    -2.85034    
C           -106.12447  -3.72984    -4.21629    
C           -106.48016  -3.14205    -5.58225    
C           -106.83585  -2.55426    -6.9482     
C           -107.19153  -1.96647    -8.31416    
C           -107.54722  -1.37869    -9.68011    
C           -107.9029   -0.7909     -11.04607   
C           -108.25859  -0.20311    -12.41203   
C           -82.30565   0.13334     0.13773     
C           -83.02984   -0.89849    -0.48969    
C           -83.02167   1.14262     0.81253     
C           -84.40292   1.06384     0.84873     
C           -85.14715   0.0134      0.25042     
C           -84.42061   -0.96673    -0.4413     
N           -85.26752   1.9788      1.44359     
C           -86.58583   1.61389     1.24241     
C           -86.57043   0.30353     0.46645     
O           -87.53155   2.25706     1.67722     
C           -84.87321   3.17438     2.15769     
C           -87.71651   -0.38679    0.13586     
C           -89.13871   -0.02616    0.2006      
C           -89.88399   -1.15576    -0.2278     
N           -89.02172   -2.20497    -0.53472    
C           -87.70328   -1.82404    -0.36817    
C           -89.86182   1.13863     0.49569     
O           -86.75914   -2.57595    -0.56905    
C           -89.41835   -3.51821    -0.99655    
H           -84.93813   -1.77751    -0.92932    
H           -82.49987   1.96431     1.28457     
H           -82.4953    -1.65384    -1.05672    
H           -91.78798   -2.05693    -0.66093    
H           -89.3428    2.03086     0.80853     
H           -91.78411   2.06323     0.59996     
H           -84.62689   2.57122     3.03154     
H           -85.11953   3.77755     1.28383     
C           -84.45666   4.43741     2.91205     
H           -89.67191   -3.09918    -1.97031    
C           -89.83732   -4.90541    -1.48438    
H           -89.16479   -3.93723    -0.02278    
C           -91.25168   1.14017     0.39405     
C           -91.26442   -1.17035    -0.32872    
C           -91.97679   0.0         0.0         
C           -77.87894   0.0         0.0         
C           -78.57213   1.26288     0.01159     
C           -78.69394   -1.11643    0.04666     
N           -77.99559   2.46914     -0.04674    
N           -80.50368   2.57712     0.03762     
S           -79.20525   3.57861     -0.03695    
H           -80.65126   -1.99404    0.16456     
H           -78.23247   -2.0981     0.08376     
C           -80.11078   -1.05547    0.09404     
C           -80.03017   1.32566     0.0606      
C           -80.82832   0.12691     0.0989      
C           -84.0401    5.70045     3.66643     
C           -83.62355   6.96348     4.4208      
C           -83.207     8.22651     5.17517     
C           -82.79045   9.48954     5.92954     
C           -82.37389   10.75258    6.68392     
C           -81.95734   12.0156     7.43829     
C           -81.54078   13.27864    8.19266     
C           -81.12423   14.54167    8.94703     
C           -80.70768   15.80471    9.7014      
C           -80.29113   17.06773    10.45577    
C           -84.11114   3.59133     4.13786     
C           -83.76562   2.74525     5.36366     
C           -83.4201    1.89915     6.58947     
C           -83.07458   1.05307     7.81527     
C           -82.72907   0.20698     9.04107     
C           -82.38354   -0.63911    10.26687    
C           -82.03803   -1.4852     11.49268    
C           -81.69251   -2.33129    12.71848    
C           -90.25628   -6.29261    -1.97221    
C           -90.67524   -7.67981    -2.46005    
C           -91.09421   -9.06701    -2.94788    
C           -91.51317   -10.45422   -3.43571    
C           -91.93214   -11.84142   -3.92355    
C           -92.3511    -13.22862   -4.41138    
C           -92.77007   -14.61582   -4.89921    
C           -93.18903   -16.00302   -5.38705    
C           -93.60799   -17.39022   -5.87488    
C           -94.02696   -18.77742   -6.36272    
C           -90.193     -4.31762    -2.85034    
C           -90.54869   -3.72984    -4.21629    
C           -90.90437   -3.14205    -5.58225    
C           -91.26006   -2.55426    -6.9482     
C           -91.61574   -1.96647    -8.31416    
C           -91.97143   -1.37869    -9.68011    
C           -92.32711   -0.7909     -11.04607   
C           -92.6828    -0.20311    -12.41203   
C           -66.72986   0.13334     0.13773     
C           -67.45405   -0.89849    -0.48969    
C           -67.44589   1.14262     0.81253     
C           -68.82713   1.06384     0.84873     
C           -69.57137   0.0134      0.25042     
C           -68.84483   -0.96673    -0.4413     
N           -69.69173   1.9788      1.44359     
C           -71.01004   1.61389     1.24241     
C           -70.99464   0.30353     0.46645     
O           -71.95576   2.25706     1.67722     
C           -69.29742   3.17438     2.15769     
C           -72.14072   -0.38679    0.13586     
C           -73.56292   -0.02616    0.2006      
C           -74.3082    -1.15576    -0.2278     
N           -73.44594   -2.20497    -0.53472    
C           -72.12749   -1.82404    -0.36817    
C           -74.28603   1.13863     0.49569     
O           -71.18335   -2.57595    -0.56905    
C           -73.84256   -3.51821    -0.99655    
H           -69.36235   -1.77751    -0.92932    
H           -66.92408   1.96431     1.28457     
H           -66.91951   -1.65384    -1.05672    
H           -76.21219   -2.05693    -0.66093    
H           -73.76701   2.03086     0.80853     
H           -76.20832   2.06323     0.59996     
H           -69.05111   2.57122     3.03154     
H           -69.54374   3.77755     1.28383     
C           -68.88087   4.43741     2.91205     
H           -74.09613   -3.09918    -1.97031    
C           -74.26153   -4.90541    -1.48438    
H           -73.589     -3.93723    -0.02278    
C           -75.67589   1.14017     0.39405     
C           -75.68863   -1.17035    -0.32872    
C           -76.401     0.0         0.0         
C           -62.30315   0.0         0.0         
C           -62.99634   1.26288     0.01159     
C           -63.11815   -1.11643    0.04666     
N           -62.4198    2.46914     -0.04674    
N           -64.92789   2.57712     0.03762     
S           -63.62946   3.57861     -0.03695    
H           -65.07547   -1.99404    0.16456     
H           -62.65668   -2.0981     0.08376     
C           -64.53499   -1.05547    0.09404     
C           -64.45438   1.32566     0.0606      
C           -65.25253   0.12691     0.0989      
C           -68.46432   5.70045     3.66643     
C           -68.04776   6.96348     4.4208      
C           -67.63121   8.22651     5.17517     
C           -67.21466   9.48954     5.92954     
C           -66.7981    10.75258    6.68392     
C           -66.38155   12.0156     7.43829     
C           -65.965     13.27864    8.19266     
C           -65.54844   14.54167    8.94703     
C           -65.13189   15.80471    9.7014      
C           -64.71534   17.06773    10.45577    
C           -68.53535   3.59133     4.13786     
C           -68.18983   2.74525     5.36366     
C           -67.84432   1.89915     6.58947     
C           -67.49879   1.05307     7.81527     
C           -67.15328   0.20698     9.04107     
C           -66.80776   -0.63911    10.26687    
C           -66.46224   -1.4852     11.49268    
C           -66.11672   -2.33129    12.71848    
C           -74.68049   -6.29261    -1.97221    
C           -75.09946   -7.67981    -2.46005    
C           -75.51842   -9.06701    -2.94788    
C           -75.93738   -10.45422   -3.43571    
C           -76.35635   -11.84142   -3.92355    
C           -76.77531   -13.22862   -4.41138    
C           -77.19428   -14.61582   -4.89921    
C           -77.61324   -16.00302   -5.38705    
C           -78.03221   -17.39022   -5.87488    
C           -78.45117   -18.77742   -6.36272    
C           -74.61721   -4.31762    -2.85034    
C           -74.9729    -3.72984    -4.21629    
C           -75.32858   -3.14205    -5.58225    
C           -75.68427   -2.55426    -6.9482     
C           -76.03995   -1.96647    -8.31416    
C           -76.39564   -1.37869    -9.68011    
C           -76.75133   -0.7909     -11.04607   
C           -77.10701   -0.20311    -12.41203   
C           -51.15407   0.13334     0.13773     
C           -51.87826   -0.89849    -0.48969    
C           -51.8701    1.14262     0.81253     
C           -53.25135   1.06384     0.84873     
C           -53.99558   0.0134      0.25042     
C           -53.26904   -0.96673    -0.4413     
N           -54.11594   1.9788      1.44359     
C           -55.43425   1.61389     1.24241     
C           -55.41885   0.30353     0.46645     
O           -56.37997   2.25706     1.67722     
C           -53.72163   3.17438     2.15769     
C           -56.56493   -0.38679    0.13586     
C           -57.98713   -0.02616    0.2006      
C           -58.73241   -1.15576    -0.2278     
N           -57.87015   -2.20497    -0.53472    
C           -56.5517    -1.82404    -0.36817    
C           -58.71025   1.13863     0.49569     
O           -55.60756   -2.57595    -0.56905    
C           -58.26677   -3.51821    -0.99655    
H           -53.78656   -1.77751    -0.92932    
H           -51.34829   1.96431     1.28457     
H           -51.34372   -1.65384    -1.05672    
H           -60.6364    -2.05693    -0.66093    
H           -58.19122   2.03086     0.80853     
H           -60.63253   2.06323     0.59996     
H           -53.47532   2.57122     3.03154     
H           -53.96795   3.77755     1.28383     
C           -53.30508   4.43741     2.91205     
H           -58.52034   -3.09918    -1.97031    
C           -58.68574   -4.90541    -1.48438    
H           -58.01321   -3.93723    -0.02278    
C           -60.1001    1.14017     0.39405     
C           -60.11285   -1.17035    -0.32872    
C           -60.82521   0.0         0.0         
C           -46.72737   0.0         0.0         
C           -47.42055   1.26288     0.01159     
C           -47.54236   -1.11643    0.04666     
N           -46.84401   2.46914     -0.04674    
N           -49.35211   2.57712     0.03762     
S           -48.05367   3.57861     -0.03695    
H           -49.49968   -1.99404    0.16456     
H           -47.08089   -2.0981     0.08376     
C           -48.9592    -1.05547    0.09404     
C           -48.87859   1.32566     0.0606      
C           -49.67674   0.12691     0.0989      
C           -52.88853   5.70045     3.66643     
C           -52.47198   6.96348     4.4208      
C           -52.05542   8.22651     5.17517     
C           -51.63887   9.48954     5.92954     
C           -51.22231   10.75258    6.68392     
C           -50.80576   12.0156     7.43829     
C           -50.38921   13.27864    8.19266     
C           -49.97265   14.54167    8.94703     
C           -49.5561    15.80471    9.7014      
C           -49.13955   17.06773    10.45577    
C           -52.95956   3.59133     4.13786     
C           -52.61404   2.74525     5.36366     
C           -52.26853   1.89915     6.58947     
C           -51.92301   1.05307     7.81527     
C           -51.57749   0.20698     9.04107     
C           -51.23197   -0.63911    10.26687    
C           -50.88645   -1.4852     11.49268    
C           -50.54093   -2.33129    12.71848    
C           -59.1047    -6.29261    -1.97221    
C           -59.52367   -7.67981    -2.46005    
C           -59.94263   -9.06701    -2.94788    
C           -60.3616    -10.45422   -3.43571    
C           -60.78056   -11.84142   -3.92355    
C           -61.19952   -13.22862   -4.41138    
C           -61.61849   -14.61582   -4.89921    
C           -62.03745   -16.00302   -5.38705    
C           -62.45642   -17.39022   -5.87488    
C           -62.87538   -18.77742   -6.36272    
C           -59.04142   -4.31762    -2.85034    
C           -59.39711   -3.72984    -4.21629    
C           -59.7528    -3.14205    -5.58225    
C           -60.10848   -2.55426    -6.9482     
C           -60.46417   -1.96647    -8.31416    
C           -60.81985   -1.37869    -9.68011    
C           -61.17554   -0.7909     -11.04607   
C           -61.53122   -0.20311    -12.41203   
C           -35.57828   0.13334     0.13773     
C           -36.30247   -0.89849    -0.48969    
C           -36.29431   1.14262     0.81253     
C           -37.67556   1.06384     0.84873     
C           -38.41979   0.0134      0.25042     
C           -37.69325   -0.96673    -0.4413     
N           -38.54015   1.9788      1.44359     
C           -39.85846   1.61389     1.24241     
C           -39.84306   0.30353     0.46645     
O           -40.80418   2.25706     1.67722     
C           -38.14584   3.17438     2.15769     
C           -40.98914   -0.38679    0.13586     
C           -42.41134   -0.02616    0.2006      
C           -43.15662   -1.15576    -0.2278     
N           -42.29436   -2.20497    -0.53472    
C           -40.97591   -1.82404    -0.36817    
C           -43.13446   1.13863     0.49569     
O           -40.03178   -2.57595    -0.56905    
C           -42.69099   -3.51821    -0.99655    
H           -38.21077   -1.77751    -0.92932    
H           -35.7725    1.96431     1.28457     
H           -35.76793   -1.65384    -1.05672    
H           -45.06061   -2.05693    -0.66093    
H           -42.61543   2.03086     0.80853     
H           -45.05675   2.06323     0.59996     
H           -37.89953   2.57122     3.03154     
H           -38.39216   3.77755     1.28383     
C           -37.72929   4.43741     2.91205     
H           -42.94455   -3.09918    -1.97031    
C           -43.10995   -4.90541    -1.48438    
H           -42.43742   -3.93723    -0.02278    
C           -44.52431   1.14017     0.39405     
C           -44.53706   -1.17035    -0.32872    
C           -45.24942   0.0         0.0         
C           -31.15158   0.0         0.0         
C           -31.84476   1.26288     0.01159     
C           -31.96658   -1.11643    0.04666     
N           -31.26822   2.46914     -0.04674    
N           -33.77632   2.57712     0.03762     
S           -32.47788   3.57861     -0.03695    
H           -33.92389   -1.99404    0.16456     
H           -31.5051    -2.0981     0.08376     
C           -33.38341   -1.05547    0.09404     
C           -33.3028    1.32566     0.0606      
C           -34.10095   0.12691     0.0989      
C           -37.31274   5.70045     3.66643     
C           -36.89619   6.96348     4.4208      
C           -36.47963   8.22651     5.17517     
C           -36.06308   9.48954     5.92954     
C           -35.64653   10.75258    6.68392     
C           -35.22997   12.0156     7.43829     
C           -34.81342   13.27864    8.19266     
C           -34.39687   14.54167    8.94703     
C           -33.98031   15.80471    9.7014      
C           -33.56376   17.06773    10.45577    
C           -37.38378   3.59133     4.13786     
C           -37.03825   2.74525     5.36366     
C           -36.69274   1.89915     6.58947     
C           -36.34722   1.05307     7.81527     
C           -36.0017    0.20698     9.04107     
C           -35.65618   -0.63911    10.26687    
C           -35.31066   -1.4852     11.49268    
C           -34.96514   -2.33129    12.71848    
C           -43.52891   -6.29261    -1.97221    
C           -43.94788   -7.67981    -2.46005    
C           -44.36684   -9.06701    -2.94788    
C           -44.78581   -10.45422   -3.43571    
C           -45.20477   -11.84142   -3.92355    
C           -45.62374   -13.22862   -4.41138    
C           -46.0427    -14.61582   -4.89921    
C           -46.46167   -16.00302   -5.38705    
C           -46.88063   -17.39022   -5.87488    
C           -47.29959   -18.77742   -6.36272    
C           -43.46564   -4.31762    -2.85034    
C           -43.82132   -3.72984    -4.21629    
C           -44.17701   -3.14205    -5.58225    
C           -44.53269   -2.55426    -6.9482     
C           -44.88838   -1.96647    -8.31416    
C           -45.24406   -1.37869    -9.68011    
C           -45.59975   -0.7909     -11.04607   
C           -45.95543   -0.20311    -12.41203   
C           -20.00249   0.13334     0.13773     
C           -20.72668   -0.89849    -0.48969    
C           -20.71852   1.14262     0.81253     
C           -22.09977   1.06384     0.84873     
C           -22.844     0.0134      0.25042     
C           -22.11746   -0.96673    -0.4413     
N           -22.96437   1.9788      1.44359     
C           -24.28268   1.61389     1.24241     
C           -24.26727   0.30353     0.46645     
O           -25.22839   2.25706     1.67722     
C           -22.57006   3.17438     2.15769     
C           -25.41335   -0.38679    0.13586     
C           -26.83555   -0.02616    0.2006      
C           -27.58083   -1.15576    -0.2278     
N           -26.71857   -2.20497    -0.53472    
C           -25.40012   -1.82404    -0.36817    
C           -27.55867   1.13863     0.49569     
O           -24.45599   -2.57595    -0.56905    
C           -27.1152    -3.51821    -0.99655    
H           -22.63498   -1.77751    -0.92932    
H           -20.19671   1.96431     1.28457     
H           -20.19215   -1.65384    -1.05672    
H           -29.48483   -2.05693    -0.66093    
H           -27.03964   2.03086     0.80853     
H           -29.48096   2.06323     0.59996     
H           -22.32374   2.57122     3.03154     
H           -22.81637   3.77755     1.28383     
C           -22.15351   4.43741     2.91205     
H           -27.36876   -3.09918    -1.97031    
C           -27.53416   -4.90541    -1.48438    
H           -26.86163   -3.93723    -0.02278    
C           -28.94852   1.14017     0.39405     
C           -28.96127   -1.17035    -0.32872    
C           -29.67364   0.0         0.0         
C           -15.57579   0.0         0.0         
C           -16.26897   1.26288     0.01159     
C           -16.39079   -1.11643    0.04666     
N           -15.69243   2.46914     -0.04674    
N           -18.20053   2.57712     0.03762     
S           -16.9021    3.57861     -0.03695    
H           -18.3481    -1.99404    0.16456     
H           -15.92931   -2.0981     0.08376     
C           -17.80763   -1.05547    0.09404     
C           -17.72702   1.32566     0.0606      
C           -18.52516   0.12691     0.0989      
C           -21.73695   5.70045     3.66643     
C           -21.3204    6.96348     4.4208      
C           -20.90384   8.22651     5.17517     
C           -20.48729   9.48954     5.92954     
C           -20.07074   10.75258    6.68392     
C           -19.65419   12.0156     7.43829     
C           -19.23763   13.27864    8.19266     
C           -18.82108   14.54167    8.94703     
C           -18.40453   15.80471    9.7014      
C           -17.98797   17.06773    10.45577    
C           -21.80799   3.59133     4.13786     
C           -21.46247   2.74525     5.36366     
C           -21.11695   1.89915     6.58947     
C           -20.77143   1.05307     7.81527     
C           -20.42591   0.20698     9.04107     
C           -20.08039   -0.63911    10.26687    
C           -19.73488   -1.4852     11.49268    
C           -19.38935   -2.33129    12.71848    
C           -27.95313   -6.29261    -1.97221    
C           -28.37209   -7.67981    -2.46005    
C           -28.79105   -9.06701    -2.94788    
C           -29.21002   -10.45422   -3.43571    
C           -29.62898   -11.84142   -3.92355    
C           -30.04795   -13.22862   -4.41138    
C           -30.46691   -14.61582   -4.89921    
C           -30.88588   -16.00302   -5.38705    
C           -31.30484   -17.39022   -5.87488    
C           -31.72381   -18.77742   -6.36272    
C           -27.88985   -4.31762    -2.85034    
C           -28.24553   -3.72984    -4.21629    
C           -28.60122   -3.14205    -5.58225    
C           -28.9569    -2.55426    -6.9482     
C           -29.31259   -1.96647    -8.31416    
C           -29.66828   -1.37869    -9.68011    
C           -30.02396   -0.7909     -11.04607   
C           -30.37965   -0.20311    -12.41203   
C           -4.4267     0.13334     0.13773     
C           -5.15089    -0.89849    -0.48969    
C           -5.14273    1.14262     0.81253     
C           -6.52398    1.06384     0.84873     
C           -7.26821    0.0134      0.25042     
C           -6.54167    -0.96673    -0.4413     
N           -7.38858    1.9788      1.44359     
C           -8.70689    1.61389     1.24241     
C           -8.69149    0.30353     0.46645     
O           -9.6526     2.25706     1.67722     
C           -6.99427    3.17438     2.15769     
C           -9.83756    -0.38679    0.13586     
C           -11.25977   -0.02616    0.2006      
C           -12.00504   -1.15576    -0.2278     
N           -11.14278   -2.20497    -0.53472    
C           -9.82434    -1.82404    -0.36817    
C           -11.98288   1.13863     0.49569     
O           -8.8802     -2.57595    -0.56905    
C           -11.53941   -3.51821    -0.99655    
H           -7.05919    -1.77751    -0.92932    
H           -4.62092    1.96431     1.28457     
H           -4.61636    -1.65384    -1.05672    
H           -13.90904   -2.05693    -0.66093    
H           -11.46385   2.03086     0.80853     
H           -13.90517   2.06323     0.59996     
H           -6.74795    2.57122     3.03154     
H           -7.24059    3.77755     1.28383     
C           -6.57772    4.43741     2.91205     
H           -11.79297   -3.09918    -1.97031    
C           -11.95837   -4.90541    -1.48438    
H           -11.28585   -3.93723    -0.02278    
C           -13.37273   1.14017     0.39405     
C           -13.38548   -1.17035    -0.32872    
C           -14.09785   0.0         0.0         
C           0.0         0.0         0.0         
C           -0.69319    1.26288     0.01159     
C           -0.815      -1.11643    0.04666     
N           -0.11665    2.46914     -0.04674    
N           -2.62474    2.57712     0.03762     
S           -1.32631    3.57861     -0.03695    
H           -2.77231    -1.99404    0.16456     
H           -0.35352    -2.0981     0.08376     
C           -2.23184    -1.05547    0.09404     
C           -2.15123    1.32566     0.0606      
C           -2.94938    0.12691     0.0989      
C           -6.16116    5.70045     3.66643     
C           -5.74461    6.96348     4.4208      
C           -5.32806    8.22651     5.17517     
C           -4.9115     9.48954     5.92954     
C           -4.49495    10.75258    6.68392     
C           -4.0784     12.0156     7.43829     
C           -3.66184    13.27864    8.19266     
C           -3.24529    14.54167    8.94703     
C           -2.82874    15.80471    9.7014      
C           -2.41219    17.06773    10.45577    
C           -6.2322     3.59133     4.13786     
C           -5.88668    2.74525     5.36366     
C           -5.54116    1.89915     6.58947     
C           -5.19564    1.05307     7.81527     
C           -4.85012    0.20698     9.04107     
C           -4.5046     -0.63911    10.26687    
C           -4.15909    -1.4852     11.49268    
C           -3.81356    -2.33129    12.71848    
C           -12.37734   -6.29261    -1.97221    
C           -12.7963    -7.67981    -2.46005    
C           -13.21527   -9.06701    -2.94788    
C           -13.63423   -10.45422   -3.43571    
C           -14.0532    -11.84142   -3.92355    
C           -14.47216   -13.22862   -4.41138    
C           -14.89112   -14.61582   -4.89921    
C           -15.31009   -16.00302   -5.38705    
C           -15.72905   -17.39022   -5.87488    
C           -16.14802   -18.77742   -6.36272    
C           -12.31406   -4.31762    -2.85034    
C           -12.66974   -3.72984    -4.21629    
C           -13.02543   -3.14205    -5.58225    
C           -13.38112   -2.55426    -6.9482     
C           -13.7368    -1.96647    -8.31416    
C           -14.09249   -1.37869    -9.68011    
C           -14.44817   -0.7909     -11.04607   
C           -14.80386   -0.20311    -12.41203   
H           -155.36994  0.0         0.0         
H           1.09        0.0         0.0         
