772

C           -170.22356  0.48596     0.0062      
S           -171.17455  1.98914     0.01868     
C           -171.03883  -0.633      -0.00215    
C           -172.41225  -0.30954    0.00121     
C           -172.66319  1.07456     0.01224     
S           -173.87531  -1.27434    -0.00566    
C           -174.83272  0.19872     0.00639     
C           -174.03607  1.35015     0.0151      
C           -176.1983   0.59868     0.01027     
C           -176.16975  2.1064      0.02195     
N           -174.83044  2.49296     0.02456     
C           -174.38679  3.87239     0.03486     
O           -177.11964  2.87888     0.02808     
H           -174.51263  3.90478     1.11709     
H           -174.26095  3.84        -1.04737    
C           -173.91867  5.32792     0.04573     
C           -177.38267  -0.1078     0.00563     
C           -177.41056  -1.61638    -0.00675    
N           -178.74939  -2.00355    -0.00935    
C           -179.54372  -0.86078    0.00049     
C           -178.74813  0.29089     0.00926     
C           -180.91784  -0.58653    0.00655     
C           -181.16935  0.79621     0.01902     
S           -179.70826  1.76288     0.02345     
C           -179.19302  -3.38305    -0.02003    
H           -179.0671   -3.41517    -1.10225    
H           -179.31895  -3.35093    1.0622      
C           -179.66111  -4.83859    -0.03129    
O           -176.46005  -2.38798    -0.0138     
H           -170.64932  -1.645      -0.01044    
H           -182.93853  2.12915     0.00128     
C           -182.54595  1.11846     0.01311     
S           -182.40676  -1.50102    0.00473     
C           -183.35651  0.0         0.0         
C           -166.31473  0.0         0.0         
C           -166.58849  1.35734     0.01        
S           -167.81549  -0.91733    -0.00545    
H           -168.34875  2.67756     0.02069     
H           -165.81175  2.11463     0.01485     
C           -167.96518  1.66287     0.01319     
C           -168.78743  0.54865     0.00575     
C           -173.45054  6.78346     0.0566      
C           -172.98242  8.23899     0.06748     
C           -172.5143   9.69453     0.07835     
C           -172.04617  11.15006    0.08922     
C           -171.57805  12.6056     0.10009     
C           -171.10993  14.06114    0.11096     
C           -170.6418   15.51667    0.12184     
C           -170.17368  16.97221    0.1327      
C           -169.70556  18.42774    0.14358     
C           -169.23743  19.88328    0.15445     
C           -173.74214  5.28248     -1.47236    
C           -173.56562  5.23705     -2.99046    
C           -173.3891   5.19162     -4.50855    
C           -173.21258  5.14618     -6.02665    
C           -173.03605  5.10075     -7.54475    
C           -172.85954  5.05532     -9.06284    
C           -172.68301  5.00989     -10.58094   
C           -172.5065   4.96445     -12.09904   
C           -180.12919  -6.29414    -0.04255    
C           -180.59728  -7.74968    -0.05382    
C           -181.06536  -9.20523    -0.06508    
C           -181.53345  -10.66077   -0.07634    
C           -182.00153  -12.11632   -0.08761    
C           -182.46962  -13.57186   -0.09887    
C           -182.9377   -15.02741   -0.11013    
C           -183.40578  -16.48295   -0.12139    
C           -183.87387  -17.9385    -0.13266    
C           -184.34195  -19.39404   -0.14392    
C           -179.83774  -4.79354    1.4868      
C           -180.01438  -4.74848    3.0049      
C           -180.19102  -4.70342    4.52299     
C           -180.36765  -4.65836    6.04109     
C           -180.54429  -4.61331    7.55918     
C           -180.72092  -4.56825    9.07728     
C           -180.89756  -4.52319    10.59537    
C           -181.0742   -4.47814    12.11346    
C           -151.74415  0.48599     0.00324     
S           -152.69513  1.98921     0.00657     
C           -152.55942  -0.633      0.00171     
C           -153.93284  -0.30953    0.0031      
C           -154.18377  1.07462     0.0057      
S           -155.39589  -1.27435    0.0021      
C           -156.35331  0.19875     0.00518     
C           -155.55666  1.35022     0.00688     
C           -157.71888  0.59873     0.00663     
C           -157.69034  2.10649     0.00912     
N           -156.35102  2.49307     0.00937     
C           -155.90737  3.87253     0.01128     
O           -158.64022  2.87899     0.01055     
H           -156.03322  3.91151     1.09329     
H           -155.78154  3.83355     -1.07073    
C           -155.43925  5.3281      0.01328     
C           -158.90325  -0.10776    0.00628     
C           -158.93115  -1.61639    0.00309     
N           -160.26998  -2.00357    0.00285     
C           -161.0643   -0.86076    0.00573     
C           -160.26871  0.29094     0.00749     
C           -162.43843  -0.58648    0.01013     
C           -162.68993  0.79631     0.01417     
S           -161.22885  1.76299     0.01271     
C           -160.71361  -3.38311    0.00057     
H           -160.58769  -3.42182    -1.08144    
H           -160.83953  -3.3444     1.08258     
C           -161.18169  -4.83869    -0.00183    
O           -157.98063  -2.38802    0.00074     
H           -152.16991  -1.64503    -0.00042    
H           -164.45911  2.12912     -0.01168    
C           -164.06653  1.11852     0.0063      
S           -163.92734  -1.50096    0.01387     
C           -164.87709  0.0         0.0         
C           -147.83532  0.0         0.0         
C           -148.10907  1.35738     0.00173     
S           -149.33608  -0.91735    0.00014     
H           -149.86933  2.67764     0.00438     
H           -147.33234  2.11468     0.00197     
C           -149.48577  1.66291     0.00306     
C           -150.30802  0.54868     0.00241     
C           -154.97112  6.78368     0.0153      
C           -154.503    8.23925     0.01731     
C           -154.03488  9.69483     0.01932     
C           -153.56675  11.1504     0.02132     
C           -153.09863  12.60598    0.02333     
C           -152.63051  14.06155    0.02534     
C           -152.16238  15.51712    0.02736     
C           -151.69426  16.9727     0.02936     
C           -151.22614  18.42828    0.03137     
C           -150.75801  19.88385    0.03338     
C           -155.26273  5.27342     -1.5045     
C           -155.0862   5.21875     -3.02229    
C           -154.90969  5.16407     -4.54008    
C           -154.73317  5.10939     -6.05787    
C           -154.55664  5.05472     -7.57566    
C           -154.38012  5.00004     -9.09346    
C           -154.2036   4.94537     -10.61125   
C           -154.02708  4.89069     -12.12904   
C           -161.64978  -6.29428    -0.00423    
C           -162.11786  -7.74987    -0.00663    
C           -162.58595  -9.20545    -0.00903    
C           -163.05403  -10.66104   -0.01143    
C           -163.52212  -12.11663   -0.01383    
C           -163.9902   -13.57221   -0.01623    
C           -164.45829  -15.0278    -0.01863    
C           -164.92637  -16.48339   -0.02102    
C           -165.39445  -17.93897   -0.02342    
C           -165.86254  -19.39456   -0.02582    
C           -161.35833  -4.78439    1.51596     
C           -161.53497  -4.73009    3.03376     
C           -161.7116   -4.67579    4.55155     
C           -161.88824  -4.62149    6.06934     
C           -162.06487  -4.56719    7.58713     
C           -162.24151  -4.51289    9.10492     
C           -162.41814  -4.45859    10.62272    
C           -162.59478  -4.40429    12.14051    
C           -133.26473  0.48599     0.00324     
S           -134.21572  1.98921     0.00657     
C           -134.08     -0.633      0.00171     
C           -135.45342  -0.30953    0.0031      
C           -135.70436  1.07462     0.0057      
S           -136.91648  -1.27435    0.0021      
C           -137.87389  0.19875     0.00518     
C           -137.07724  1.35022     0.00688     
C           -139.23947  0.59873     0.00663     
C           -139.21092  2.10649     0.00912     
N           -137.87161  2.49307     0.00937     
C           -137.42796  3.87253     0.01128     
O           -140.16081  2.87899     0.01055     
H           -137.5538   3.91151     1.09329     
H           -137.30212  3.83355     -1.07073    
C           -136.95984  5.3281      0.01328     
C           -140.42384  -0.10776    0.00628     
C           -140.45174  -1.61639    0.00309     
N           -141.79056  -2.00357    0.00285     
C           -142.58489  -0.86076    0.00573     
C           -141.7893   0.29094     0.00749     
C           -143.95901  -0.58648    0.01013     
C           -144.21052  0.79631     0.01417     
S           -142.74944  1.76299     0.01271     
C           -142.2342   -3.38311    0.00057     
H           -142.10827  -3.42182    -1.08144    
H           -142.36012  -3.3444     1.08258     
C           -142.70228  -4.83869    -0.00183    
O           -139.50122  -2.38802    0.00074     
H           -133.6905   -1.64503    -0.00042    
H           -145.9797   2.12912     -0.01168    
C           -145.58712  1.11852     0.0063      
S           -145.44793  -1.50096    0.01387     
C           -146.39768  0.0         0.0         
C           -129.3559   0.0         0.0         
C           -129.62966  1.35738     0.00173     
S           -130.85666  -0.91735    0.00014     
H           -131.38992  2.67764     0.00438     
H           -128.85292  2.11468     0.00197     
C           -131.00636  1.66291     0.00306     
C           -131.8286   0.54868     0.00241     
C           -136.49171  6.78368     0.0153      
C           -136.02359  8.23925     0.01731     
C           -135.55547  9.69483     0.01932     
C           -135.08734  11.1504     0.02132     
C           -134.61922  12.60598    0.02333     
C           -134.1511   14.06155    0.02534     
C           -133.68297  15.51712    0.02736     
C           -133.21485  16.9727     0.02936     
C           -132.74673  18.42828    0.03137     
C           -132.2786   19.88385    0.03338     
C           -136.78332  5.27342     -1.5045     
C           -136.60679  5.21875     -3.02229    
C           -136.43027  5.16407     -4.54008    
C           -136.25375  5.10939     -6.05787    
C           -136.07722  5.05472     -7.57566    
C           -135.90071  5.00004     -9.09346    
C           -135.72418  4.94537     -10.61125   
C           -135.54767  4.89069     -12.12904   
C           -143.17036  -6.29428    -0.00423    
C           -143.63845  -7.74987    -0.00663    
C           -144.10653  -9.20545    -0.00903    
C           -144.57462  -10.66104   -0.01143    
C           -145.0427   -12.11663   -0.01383    
C           -145.51079  -13.57221   -0.01623    
C           -145.97887  -15.0278    -0.01863    
C           -146.44696  -16.48339   -0.02102    
C           -146.91504  -17.93897   -0.02342    
C           -147.38312  -19.39456   -0.02582    
C           -142.87892  -4.78439    1.51596     
C           -143.05555  -4.73009    3.03376     
C           -143.23219  -4.67579    4.55155     
C           -143.40882  -4.62149    6.06934     
C           -143.58546  -4.56719    7.58713     
C           -143.76209  -4.51289    9.10492     
C           -143.93873  -4.45859    10.62272    
C           -144.11537  -4.40429    12.14051    
C           -114.78532  0.48599     0.00324     
S           -115.73631  1.98921     0.00657     
C           -115.60059  -0.633      0.00171     
C           -116.97401  -0.30953    0.0031      
C           -117.22494  1.07462     0.0057      
S           -118.43707  -1.27435    0.0021      
C           -119.39448  0.19875     0.00518     
C           -118.59783  1.35022     0.00688     
C           -120.76005  0.59873     0.00663     
C           -120.73151  2.10649     0.00912     
N           -119.3922   2.49307     0.00937     
C           -118.94854  3.87253     0.01128     
O           -121.68139  2.87899     0.01055     
H           -119.07439  3.91151     1.09329     
H           -118.82271  3.83355     -1.07073    
C           -118.48042  5.3281      0.01328     
C           -121.94442  -0.10776    0.00628     
C           -121.97232  -1.61639    0.00309     
N           -123.31115  -2.00357    0.00285     
C           -124.10548  -0.86076    0.00573     
C           -123.30988  0.29094     0.00749     
C           -125.4796   -0.58648    0.01013     
C           -125.7311   0.79631     0.01417     
S           -124.27002  1.76299     0.01271     
C           -123.75478  -3.38311    0.00057     
H           -123.62886  -3.42182    -1.08144    
H           -123.8807   -3.3444     1.08258     
C           -124.22287  -4.83869    -0.00183    
O           -121.0218   -2.38802    0.00074     
H           -115.21108  -1.64503    -0.00042    
H           -127.50028  2.12912     -0.01168    
C           -127.1077   1.11852     0.0063      
S           -126.96852  -1.50096    0.01387     
C           -127.91827  0.0         0.0         
C           -110.87649  0.0         0.0         
C           -111.15024  1.35738     0.00173     
S           -112.37725  -0.91735    0.00014     
H           -112.9105   2.67764     0.00438     
H           -110.37351  2.11468     0.00197     
C           -112.52694  1.66291     0.00306     
C           -113.34919  0.54868     0.00241     
C           -118.01229  6.78368     0.0153      
C           -117.54417  8.23925     0.01731     
C           -117.07605  9.69483     0.01932     
C           -116.60792  11.1504     0.02132     
C           -116.1398   12.60598    0.02333     
C           -115.67168  14.06155    0.02534     
C           -115.20355  15.51712    0.02736     
C           -114.73543  16.9727     0.02936     
C           -114.26731  18.42828    0.03137     
C           -113.79918  19.88385    0.03338     
C           -118.3039   5.27342     -1.5045     
C           -118.12738  5.21875     -3.02229    
C           -117.95086  5.16407     -4.54008    
C           -117.77434  5.10939     -6.05787    
C           -117.59781  5.05472     -7.57566    
C           -117.42129  5.00004     -9.09346    
C           -117.24477  4.94537     -10.61125   
C           -117.06825  4.89069     -12.12904   
C           -124.69095  -6.29428    -0.00423    
C           -125.15903  -7.74987    -0.00663    
C           -125.62712  -9.20545    -0.00903    
C           -126.0952   -10.66104   -0.01143    
C           -126.56329  -12.11663   -0.01383    
C           -127.03137  -13.57221   -0.01623    
C           -127.49946  -15.0278    -0.01863    
C           -127.96754  -16.48339   -0.02102    
C           -128.43563  -17.93897   -0.02342    
C           -128.90371  -19.39456   -0.02582    
C           -124.3995   -4.78439    1.51596     
C           -124.57614  -4.73009    3.03376     
C           -124.75277  -4.67579    4.55155     
C           -124.92941  -4.62149    6.06934     
C           -125.10604  -4.56719    7.58713     
C           -125.28268  -4.51289    9.10492     
C           -125.45932  -4.45859    10.62272    
C           -125.63595  -4.40429    12.14051    
C           -96.3059    0.48599     0.00324     
S           -97.25689   1.98921     0.00657     
C           -97.12117   -0.633      0.00171     
C           -98.49459   -0.30953    0.0031      
C           -98.74553   1.07462     0.0057      
S           -99.95765   -1.27435    0.0021      
C           -100.91506  0.19875     0.00518     
C           -100.11841  1.35022     0.00688     
C           -102.28064  0.59873     0.00663     
C           -102.25209  2.10649     0.00912     
N           -100.91278  2.49307     0.00937     
C           -100.46913  3.87253     0.01128     
O           -103.20198  2.87899     0.01055     
H           -100.59497  3.91151     1.09329     
H           -100.34329  3.83355     -1.07073    
C           -100.00101  5.3281      0.01328     
C           -103.46501  -0.10776    0.00628     
C           -103.49291  -1.61639    0.00309     
N           -104.83174  -2.00357    0.00285     
C           -105.62606  -0.86076    0.00573     
C           -104.83047  0.29094     0.00749     
C           -107.00019  -0.58648    0.01013     
C           -107.25169  0.79631     0.01417     
S           -105.79061  1.76299     0.01271     
C           -105.27537  -3.38311    0.00057     
H           -105.14945  -3.42182    -1.08144    
H           -105.40129  -3.3444     1.08258     
C           -105.74345  -4.83869    -0.00183    
O           -102.54239  -2.38802    0.00074     
H           -96.73167   -1.64503    -0.00042    
H           -109.02087  2.12912     -0.01168    
C           -108.62829  1.11852     0.0063      
S           -108.4891   -1.50096    0.01387     
C           -109.43885  0.0         0.0         
C           -92.39707   0.0         0.0         
C           -92.67083   1.35738     0.00173     
S           -93.89784   -0.91735    0.00014     
H           -94.43109   2.67764     0.00438     
H           -91.89409   2.11468     0.00197     
C           -94.04753   1.66291     0.00306     
C           -94.86977   0.54868     0.00241     
C           -99.53288   6.78368     0.0153      
C           -99.06476   8.23925     0.01731     
C           -98.59664   9.69483     0.01932     
C           -98.12851   11.1504     0.02132     
C           -97.66039   12.60598    0.02333     
C           -97.19227   14.06155    0.02534     
C           -96.72414   15.51712    0.02736     
C           -96.25602   16.9727     0.02936     
C           -95.7879    18.42828    0.03137     
C           -95.31977   19.88385    0.03338     
C           -99.82449   5.27342     -1.5045     
C           -99.64796   5.21875     -3.02229    
C           -99.47144   5.16407     -4.54008    
C           -99.29492   5.10939     -6.05787    
C           -99.1184    5.05472     -7.57566    
C           -98.94188   5.00004     -9.09346    
C           -98.76535   4.94537     -10.61125   
C           -98.58884   4.89069     -12.12904   
C           -106.21153  -6.29428    -0.00423    
C           -106.67962  -7.74987    -0.00663    
C           -107.1477   -9.20545    -0.00903    
C           -107.61579  -10.66104   -0.01143    
C           -108.08387  -12.11663   -0.01383    
C           -108.55196  -13.57221   -0.01623    
C           -109.02004  -15.0278    -0.01863    
C           -109.48813  -16.48339   -0.02102    
C           -109.95621  -17.93897   -0.02342    
C           -110.4243   -19.39456   -0.02582    
C           -105.92009  -4.78439    1.51596     
C           -106.09672  -4.73009    3.03376     
C           -106.27336  -4.67579    4.55155     
C           -106.44999  -4.62149    6.06934     
C           -106.62663  -4.56719    7.58713     
C           -106.80327  -4.51289    9.10492     
C           -106.9799   -4.45859    10.62272    
C           -107.15654  -4.40429    12.14051    
C           -77.82649   0.48599     0.00324     
S           -78.77748   1.98921     0.00657     
C           -78.64176   -0.633      0.00171     
C           -80.01518   -0.30953    0.0031      
C           -80.26611   1.07462     0.0057      
S           -81.47824   -1.27435    0.0021      
C           -82.43565   0.19875     0.00518     
C           -81.639     1.35022     0.00688     
C           -83.80122   0.59873     0.00663     
C           -83.77268   2.10649     0.00912     
N           -82.43337   2.49307     0.00937     
C           -81.98971   3.87253     0.01128     
O           -84.72256   2.87899     0.01055     
H           -82.11556   3.91151     1.09329     
H           -81.86388   3.83355     -1.07073    
C           -81.52159   5.3281      0.01328     
C           -84.98559   -0.10776    0.00628     
C           -85.01349   -1.61639    0.00309     
N           -86.35232   -2.00357    0.00285     
C           -87.14665   -0.86076    0.00573     
C           -86.35105   0.29094     0.00749     
C           -88.52077   -0.58648    0.01013     
C           -88.77227   0.79631     0.01417     
S           -87.31119   1.76299     0.01271     
C           -86.79595   -3.38311    0.00057     
H           -86.67003   -3.42182    -1.08144    
H           -86.92187   -3.3444     1.08258     
C           -87.26404   -4.83869    -0.00183    
O           -84.06297   -2.38802    0.00074     
H           -78.25225   -1.64503    -0.00042    
H           -90.54146   2.12912     -0.01168    
C           -90.14887   1.11852     0.0063      
S           -90.00969   -1.50096    0.01387     
C           -90.95944   0.0         0.0         
C           -73.91766   0.0         0.0         
C           -74.19141   1.35738     0.00173     
S           -75.41842   -0.91735    0.00014     
H           -75.95167   2.67764     0.00438     
H           -73.41468   2.11468     0.00197     
C           -75.56811   1.66291     0.00306     
C           -76.39036   0.54868     0.00241     
C           -81.05346   6.78368     0.0153      
C           -80.58534   8.23925     0.01731     
C           -80.11722   9.69483     0.01932     
C           -79.64909   11.1504     0.02132     
C           -79.18097   12.60598    0.02333     
C           -78.71285   14.06155    0.02534     
C           -78.24472   15.51712    0.02736     
C           -77.7766    16.9727     0.02936     
C           -77.30848   18.42828    0.03137     
C           -76.84035   19.88385    0.03338     
C           -81.34507   5.27342     -1.5045     
C           -81.16855   5.21875     -3.02229    
C           -80.99203   5.16407     -4.54008    
C           -80.81551   5.10939     -6.05787    
C           -80.63898   5.05472     -7.57566    
C           -80.46246   5.00004     -9.09346    
C           -80.28594   4.94537     -10.61125   
C           -80.10943   4.89069     -12.12904   
C           -87.73212   -6.29428    -0.00423    
C           -88.2002    -7.74987    -0.00663    
C           -88.66829   -9.20545    -0.00903    
C           -89.13637   -10.66104   -0.01143    
C           -89.60446   -12.11663   -0.01383    
C           -90.07254   -13.57221   -0.01623    
C           -90.54063   -15.0278    -0.01863    
C           -91.00871   -16.48339   -0.02102    
C           -91.4768    -17.93897   -0.02342    
C           -91.94488   -19.39456   -0.02582    
C           -87.44067   -4.78439    1.51596     
C           -87.61731   -4.73009    3.03376     
C           -87.79394   -4.67579    4.55155     
C           -87.97058   -4.62149    6.06934     
C           -88.14721   -4.56719    7.58713     
C           -88.32385   -4.51289    9.10492     
C           -88.50049   -4.45859    10.62272    
C           -88.67712   -4.40429    12.14051    
C           -59.34707   0.48599     0.00324     
S           -60.29806   1.98921     0.00657     
C           -60.16234   -0.633      0.00171     
C           -61.53576   -0.30953    0.0031      
C           -61.7867    1.07462     0.0057      
S           -62.99882   -1.27435    0.0021      
C           -63.95623   0.19875     0.00518     
C           -63.15958   1.35022     0.00688     
C           -65.32181   0.59873     0.00663     
C           -65.29327   2.10649     0.00912     
N           -63.95395   2.49307     0.00937     
C           -63.5103    3.87253     0.01128     
O           -66.24315   2.87899     0.01055     
H           -63.63614   3.91151     1.09329     
H           -63.38447   3.83355     -1.07073    
C           -63.04218   5.3281      0.01328     
C           -66.50618   -0.10776    0.00628     
C           -66.53408   -1.61639    0.00309     
N           -67.87291   -2.00357    0.00285     
C           -68.66723   -0.86076    0.00573     
C           -67.87164   0.29094     0.00749     
C           -70.04136   -0.58648    0.01013     
C           -70.29286   0.79631     0.01417     
S           -68.83178   1.76299     0.01271     
C           -68.31654   -3.38311    0.00057     
H           -68.19062   -3.42182    -1.08144    
H           -68.44246   -3.3444     1.08258     
C           -68.78462   -4.83869    -0.00183    
O           -65.58356   -2.38802    0.00074     
H           -59.77284   -1.64503    -0.00042    
H           -72.06204   2.12912     -0.01168    
C           -71.66946   1.11852     0.0063      
S           -71.53027   -1.50096    0.01387     
C           -72.48002   0.0         0.0         
C           -55.43824   0.0         0.0         
C           -55.712     1.35738     0.00173     
S           -56.93901   -0.91735    0.00014     
H           -57.47226   2.67764     0.00438     
H           -54.93526   2.11468     0.00197     
C           -57.0887    1.66291     0.00306     
C           -57.91094   0.54868     0.00241     
C           -62.57405   6.78368     0.0153      
C           -62.10593   8.23925     0.01731     
C           -61.63781   9.69483     0.01932     
C           -61.16968   11.1504     0.02132     
C           -60.70156   12.60598    0.02333     
C           -60.23344   14.06155    0.02534     
C           -59.76531   15.51712    0.02736     
C           -59.29719   16.9727     0.02936     
C           -58.82907   18.42828    0.03137     
C           -58.36094   19.88385    0.03338     
C           -62.86566   5.27342     -1.5045     
C           -62.68913   5.21875     -3.02229    
C           -62.51262   5.16407     -4.54008    
C           -62.33609   5.10939     -6.05787    
C           -62.15957   5.05472     -7.57566    
C           -61.98305   5.00004     -9.09346    
C           -61.80652   4.94537     -10.61125   
C           -61.63001   4.89069     -12.12904   
C           -69.25271   -6.29428    -0.00423    
C           -69.72079   -7.74987    -0.00663    
C           -70.18887   -9.20545    -0.00903    
C           -70.65696   -10.66104   -0.01143    
C           -71.12504   -12.11663   -0.01383    
C           -71.59313   -13.57221   -0.01623    
C           -72.06121   -15.0278    -0.01863    
C           -72.5293    -16.48339   -0.02102    
C           -72.99738   -17.93897   -0.02342    
C           -73.46547   -19.39456   -0.02582    
C           -68.96126   -4.78439    1.51596     
C           -69.13789   -4.73009    3.03376     
C           -69.31453   -4.67579    4.55155     
C           -69.49116   -4.62149    6.06934     
C           -69.6678    -4.56719    7.58713     
C           -69.84444   -4.51289    9.10492     
C           -70.02107   -4.45859    10.62272    
C           -70.19771   -4.40429    12.14051    
C           -40.86766   0.48599     0.00324     
S           -41.81865   1.98921     0.00657     
C           -41.68293   -0.633      0.00171     
C           -43.05635   -0.30953    0.0031      
C           -43.30728   1.07462     0.0057      
S           -44.51941   -1.27435    0.0021      
C           -45.47682   0.19875     0.00518     
C           -44.68017   1.35022     0.00688     
C           -46.84239   0.59873     0.00663     
C           -46.81385   2.10649     0.00912     
N           -45.47454   2.49307     0.00937     
C           -45.03089   3.87253     0.01128     
O           -47.76373   2.87899     0.01055     
H           -45.15673   3.91151     1.09329     
H           -44.90505   3.83355     -1.07073    
C           -44.56276   5.3281      0.01328     
C           -48.02677   -0.10776    0.00628     
C           -48.05466   -1.61639    0.00309     
N           -49.39349   -2.00357    0.00285     
C           -50.18782   -0.86076    0.00573     
C           -49.39222   0.29094     0.00749     
C           -51.56194   -0.58648    0.01013     
C           -51.81344   0.79631     0.01417     
S           -50.35236   1.76299     0.01271     
C           -49.83712   -3.38311    0.00057     
H           -49.7112    -3.42182    -1.08144    
H           -49.96304   -3.3444     1.08258     
C           -50.30521   -4.83869    -0.00183    
O           -47.10414   -2.38802    0.00074     
H           -41.29342   -1.64503    -0.00042    
H           -53.58263   2.12912     -0.01168    
C           -53.19005   1.11852     0.0063      
S           -53.05086   -1.50096    0.01387     
C           -54.00061   0.0         0.0         
C           -36.95883   0.0         0.0         
C           -37.23258   1.35738     0.00173     
S           -38.45959   -0.91735    0.00014     
H           -38.99285   2.67764     0.00438     
H           -36.45585   2.11468     0.00197     
C           -38.60928   1.66291     0.00306     
C           -39.43153   0.54868     0.00241     
C           -44.09464   6.78368     0.0153      
C           -43.62651   8.23925     0.01731     
C           -43.15839   9.69483     0.01932     
C           -42.69026   11.1504     0.02132     
C           -42.22214   12.60598    0.02333     
C           -41.75402   14.06155    0.02534     
C           -41.28589   15.51712    0.02736     
C           -40.81777   16.9727     0.02936     
C           -40.34965   18.42828    0.03137     
C           -39.88152   19.88385    0.03338     
C           -44.38624   5.27342     -1.5045     
C           -44.20972   5.21875     -3.02229    
C           -44.0332    5.16407     -4.54008    
C           -43.85668   5.10939     -6.05787    
C           -43.68015   5.05472     -7.57566    
C           -43.50364   5.00004     -9.09346    
C           -43.32711   4.94537     -10.61125   
C           -43.1506    4.89069     -12.12904   
C           -50.77329   -6.29428    -0.00423    
C           -51.24138   -7.74987    -0.00663    
C           -51.70946   -9.20545    -0.00903    
C           -52.17754   -10.66104   -0.01143    
C           -52.64563   -12.11663   -0.01383    
C           -53.11371   -13.57221   -0.01623    
C           -53.5818    -15.0278    -0.01863    
C           -54.04988   -16.48339   -0.02102    
C           -54.51797   -17.93897   -0.02342    
C           -54.98605   -19.39456   -0.02582    
C           -50.48184   -4.78439    1.51596     
C           -50.65848   -4.73009    3.03376     
C           -50.83511   -4.67579    4.55155     
C           -51.01175   -4.62149    6.06934     
C           -51.18839   -4.56719    7.58713     
C           -51.36502   -4.51289    9.10492     
C           -51.54166   -4.45859    10.62272    
C           -51.71829   -4.40429    12.14051    
C           -22.38824   0.48599     0.00324     
S           -23.33923   1.98921     0.00657     
C           -23.20351   -0.633      0.00171     
C           -24.57694   -0.30953    0.0031      
C           -24.82787   1.07462     0.0057      
S           -26.03999   -1.27435    0.0021      
C           -26.9974    0.19875     0.00518     
C           -26.20075   1.35022     0.00688     
C           -28.36298   0.59873     0.00663     
C           -28.33444   2.10649     0.00912     
N           -26.99512   2.49307     0.00937     
C           -26.55147   3.87253     0.01128     
O           -29.28432   2.87899     0.01055     
H           -26.67732   3.91151     1.09329     
H           -26.42564   3.83355     -1.07073    
C           -26.08335   5.3281      0.01328     
C           -29.54735   -0.10776    0.00628     
C           -29.57525   -1.61639    0.00309     
N           -30.91408   -2.00357    0.00285     
C           -31.7084    -0.86076    0.00573     
C           -30.91281   0.29094     0.00749     
C           -33.08253   -0.58648    0.01013     
C           -33.33403   0.79631     0.01417     
S           -31.87295   1.76299     0.01271     
C           -31.35771   -3.38311    0.00057     
H           -31.23179   -3.42182    -1.08144    
H           -31.48363   -3.3444     1.08258     
C           -31.82579   -4.83869    -0.00183    
O           -28.62473   -2.38802    0.00074     
H           -22.81401   -1.64503    -0.00042    
H           -35.10321   2.12912     -0.01168    
C           -34.71063   1.11852     0.0063      
S           -34.57144   -1.50096    0.01387     
C           -35.52119   0.0         0.0         
C           -18.47941   0.0         0.0         
C           -18.75317   1.35738     0.00173     
S           -19.98018   -0.91735    0.00014     
H           -20.51343   2.67764     0.00438     
H           -17.97643   2.11468     0.00197     
C           -20.12987   1.66291     0.00306     
C           -20.95211   0.54868     0.00241     
C           -25.61522   6.78368     0.0153      
C           -25.1471    8.23925     0.01731     
C           -24.67898   9.69483     0.01932     
C           -24.21085   11.1504     0.02132     
C           -23.74273   12.60598    0.02333     
C           -23.27461   14.06155    0.02534     
C           -22.80648   15.51712    0.02736     
C           -22.33836   16.9727     0.02936     
C           -21.87024   18.42828    0.03137     
C           -21.40211   19.88385    0.03338     
C           -25.90683   5.27342     -1.5045     
C           -25.7303    5.21875     -3.02229    
C           -25.55379   5.16407     -4.54008    
C           -25.37726   5.10939     -6.05787    
C           -25.20074   5.05472     -7.57566    
C           -25.02422   5.00004     -9.09346    
C           -24.8477    4.94537     -10.61125   
C           -24.67118   4.89069     -12.12904   
C           -32.29388   -6.29428    -0.00423    
C           -32.76196   -7.74987    -0.00663    
C           -33.23005   -9.20545    -0.00903    
C           -33.69813   -10.66104   -0.01143    
C           -34.16621   -12.11663   -0.01383    
C           -34.6343    -13.57221   -0.01623    
C           -35.10238   -15.0278    -0.01863    
C           -35.57047   -16.48339   -0.02102    
C           -36.03855   -17.93897   -0.02342    
C           -36.50664   -19.39456   -0.02582    
C           -32.00243   -4.78439    1.51596     
C           -32.17906   -4.73009    3.03376     
C           -32.3557    -4.67579    4.55155     
C           -32.53234   -4.62149    6.06934     
C           -32.70897   -4.56719    7.58713     
C           -32.88561   -4.51289    9.10492     
C           -33.06224   -4.45859    10.62272    
C           -33.23888   -4.40429    12.14051    
C           -3.90883    0.48599     0.00324     
S           -4.85982    1.98921     0.00657     
C           -4.7241     -0.633      0.00171     
C           -6.09752    -0.30953    0.0031      
C           -6.34846    1.07462     0.0057      
S           -7.56058    -1.27435    0.0021      
C           -8.51799    0.19875     0.00518     
C           -7.72134    1.35022     0.00688     
C           -9.88356    0.59873     0.00663     
C           -9.85502    2.10649     0.00912     
N           -8.51571    2.49307     0.00937     
C           -8.07206    3.87253     0.01128     
O           -10.80491   2.87899     0.01055     
H           -8.1979     3.91151     1.09329     
H           -7.94622    3.83355     -1.07073    
C           -7.60394    5.3281      0.01328     
C           -11.06794   -0.10776    0.00628     
C           -11.09583   -1.61639    0.00309     
N           -12.43466   -2.00357    0.00285     
C           -13.22899   -0.86076    0.00573     
C           -12.43339   0.29094     0.00749     
C           -14.60311   -0.58648    0.01013     
C           -14.85461   0.79631     0.01417     
S           -13.39353   1.76299     0.01271     
C           -12.87829   -3.38311    0.00057     
H           -12.75237   -3.42182    -1.08144    
H           -13.00421   -3.3444     1.08258     
C           -13.34638   -4.83869    -0.00183    
O           -10.14532   -2.38802    0.00074     
H           -4.33459    -1.64503    -0.00042    
H           -16.6238    2.12912     -0.01168    
C           -16.23122   1.11852     0.0063      
S           -16.09203   -1.50096    0.01387     
C           -17.04178   0.0         0.0         
C           0.0         0.0         0.0         
C           -0.27375    1.35738     0.00173     
S           -1.50076    -0.91735    0.00014     
H           -2.03402    2.67764     0.00438     
H           0.50298     2.11468     0.00197     
C           -1.65045    1.66291     0.00306     
C           -2.4727     0.54868     0.00241     
C           -7.13581    6.78368     0.0153      
C           -6.66769    8.23925     0.01731     
C           -6.19957    9.69483     0.01932     
C           -5.73144    11.1504     0.02132     
C           -5.26331    12.60598    0.02333     
C           -4.79519    14.06155    0.02534     
C           -4.32707    15.51712    0.02736     
C           -3.85894    16.9727     0.02936     
C           -3.39082    18.42828    0.03137     
C           -2.92269    19.88385    0.03338     
C           -7.42741    5.27342     -1.5045     
C           -7.25089    5.21875     -3.02229    
C           -7.07437    5.16407     -4.54008    
C           -6.89785    5.10939     -6.05787    
C           -6.72132    5.05472     -7.57566    
C           -6.54481    5.00004     -9.09346    
C           -6.36828    4.94537     -10.61125   
C           -6.19177    4.89069     -12.12904   
C           -13.81446   -6.29428    -0.00423    
C           -14.28255   -7.74987    -0.00663    
C           -14.75063   -9.20545    -0.00903    
C           -15.21872   -10.66104   -0.01143    
C           -15.6868    -12.11663   -0.01383    
C           -16.15488   -13.57221   -0.01623    
C           -16.62297   -15.0278    -0.01863    
C           -17.09105   -16.48339   -0.02102    
C           -17.55914   -17.93897   -0.02342    
C           -18.02722   -19.39456   -0.02582    
C           -13.52301   -4.78439    1.51596     
C           -13.69965   -4.73009    3.03376     
C           -13.87628   -4.67579    4.55155     
C           -14.05292   -4.62149    6.06934     
C           -14.22956   -4.56719    7.58713     
C           -14.40619   -4.51289    9.10492     
C           -14.58283   -4.45859    10.62272    
C           -14.75946   -4.40429    12.14051    
H           -184.44651  0.0         0.0         
H           1.09        0.0         0.0         
