88

C           -19.02134   -0.1141     -0.00018    
C           -19.52474   1.18471     0.00391     
S           -20.34495   -1.27786    -0.00398    
H           -21.48113   2.17614     0.00694     
H           -18.87243   2.05275     0.0067      
C           -20.92654   1.24368     0.004       
C           -21.54371   -0.0        -0.0        
C           -14.25693   0.6077      0.00218     
C           -15.33417   -0.28508    -0.0006     
N           -14.80101   1.89087     0.00616     
C           -16.23509   1.85644     0.00605     
C           -15.64831   -1.69608    -0.00503    
O           -14.96136   -2.7154     -0.00818    
O           -16.92216   2.87565     0.00923     
C           -17.76704   -3.01128    -0.00913    
C           -14.11648   3.17172     0.01018     
C           -13.3958    4.52022     0.01442     
H           -13.66212   2.93192     -0.95115    
H           -14.57084   3.41153     0.97151     
H           -18.22139   -2.77142    0.95219     
C           -18.48773   -4.35977    -0.01329    
H           -17.31269   -3.25113    -0.97045    
N           -17.08251   -1.73045    -0.00517    
C           -16.5493    0.44535     0.00166     
C           -17.62644   -0.44731    -0.00117    
C           -10.33966   0.1606      0.00074     
C           -10.95718   -1.08328    -0.00308    
S           -11.53855   1.43857     0.00471     
H           -13.01109   -1.8922     -0.00554    
H           -10.40258   -2.01572    -0.00596    
C           -12.35872   -1.0242     -0.00286    
C           -12.86228   0.27475     0.00115     
C           0.0         0.0         0.0         
S           -1.21371    1.26961     0.00397     
C           -0.63774    -1.2207     -0.00375    
C           -2.55747    0.12967     0.00047     
C           -2.04718    -1.15105    -0.00351    
C           -3.91124    0.61147     0.00198     
C           -5.02364    -0.1751     -0.00042    
C           -6.37621    0.30984     0.00111     
C           -6.88325    1.59375     0.00509     
H           -4.03076    1.69055     0.00532     
H           -4.90539    -1.25424    -0.00376    
F           -6.12733    2.70343     0.0085      
F           -8.93361    2.84362     0.009       
F           -2.79934    -2.26296    -0.00693    
F           0.00755     -2.39694    -0.00742    
C           -8.28993    1.66707     0.00535     
S           -7.72036    -0.82762    -0.00237    
C           -8.93316    0.44594     0.00159     
C           -12.67511   5.86871     0.01866     
C           -11.95443   7.21721     0.0229      
C           -11.23375   8.5657      0.02714     
C           -10.51307   9.9142      0.03138     
C           -9.79238    11.26269    0.03562     
C           -9.07169    12.61118    0.03986     
C           -8.35102    13.95968    0.04409     
C           -7.63033    15.30818    0.04834     
C           -6.90965    16.65667    0.05257     
C           -6.18897    18.00517    0.05681     
C           -12.75844   4.18383     -1.33408    
C           -12.12108   3.84744     -2.68258    
C           -11.48372   3.51106     -4.03109    
C           -10.84637   3.17467     -5.37959    
C           -10.20901   2.83827     -6.72809    
C           -9.57166    2.50189     -8.0766     
C           -8.93429    2.1655      -9.4251     
C           -8.29694    1.82911     -10.7736    
C           -19.20842   -5.70826    -0.01746    
C           -19.92912   -7.05675    -0.02162    
C           -20.64981   -8.40524    -0.02579    
C           -21.3705    -9.75373    -0.02996    
C           -22.09119   -11.10222   -0.03412    
C           -22.81189   -12.45071   -0.03829    
C           -23.53258   -13.7992    -0.04245    
C           -24.25327   -15.14769   -0.04662    
C           -24.97396   -16.49618   -0.05078    
C           -25.69465   -17.84467   -0.05495    
C           -19.12508   -4.02331    1.3352      
C           -19.76242   -3.68685    2.68369     
C           -20.39977   -3.35039    4.03218     
C           -21.03711   -3.01393    5.38067     
C           -21.67446   -2.67747    6.72916     
C           -22.31181   -2.34101    8.07765     
C           -22.94915   -2.00455    9.42614     
C           -23.5865    -1.66809    10.77463    
H           -22.63371   -0.0        -0.0        
H           1.09        0.0         0.0         
