492
AIGDPT_10
C	-0.881	1.255	0.024
N	-1.313	-0.034	0.026
C	-1.784	2.332	0.019
C	-2.616	-0.213	0.022
C	-3.632	0.786	0.016
C	-4.922	0.098	0.013
C	-4.568	-1.382	0.018
N	-3.186	-1.475	0.023
C	-6.226	0.556	0.007
C	-6.58	2.038	0.002
N	-7.961	2.131	-0.005
C	-8.53	0.869	-0.004
C	-7.989	-1.451	0.003
C	-7.515	-0.131	0.003
C	-3.159	2.106	0.015
O	-5.846	3.016	0.003
O	-5.3	-2.361	0.017
C	-8.698	3.38	-0.011
C	-2.449	-2.724	0.028
H	-1.818	-2.791	0.919
H	-1.81	-2.794	-0.857
H	-3.181	-3.533	0.026
H	-9.337	3.45	0.875
H	-9.33	3.445	-0.901
H	-7.967	4.189	-0.01
H	-9.732	-2.696	-0.002
H	-7.296	-2.278	0.009
H	-3.852	2.932	0.011
H	-1.416	3.352	0.019
C	-9.363	-1.676	-0.003
N	-9.833	0.691	-0.01
C	-10.267	-0.598	-0.009
C	6.902	1.065	0.022
S	5.718	-0.256	0.029
C	6.306	2.317	0.023
C	4.9	2.219	0.031
C	4.415	0.895	0.029
N	3.838	3.109	0.05
C	2.68	2.348	0.033
C	3.01	0.976	0.03
C	3.921	4.552	-0.048
H	3.058	5.001	0.45
H	3.947	4.893	-1.091
H	4.824	4.9	0.46
H	0.844	3.592	0.021
H	6.867	3.244	0.015
C	1.294	2.607	0.028
S	1.582	-0.016	0.034
C	0.559	1.433	0.029
C	17.42	-2.201	-0.041
N	17.139	-0.871	-0.041
C	16.399	-3.167	-0.034
C	15.866	-0.542	-0.035
C	14.741	-1.418	-0.027
C	13.54	-0.585	-0.02
C	14.062	0.844	-0.026
N	15.446	0.777	-0.034
C	12.192	-0.89	-0.011
C	11.669	-2.321	-0.005
N	10.286	-2.254	0.004
C	9.866	-0.934	0.005
C	10.672	1.307	-0.004
C	10.991	-0.059	-0.004
C	15.059	-2.783	-0.026
O	12.285	-3.377	-0.008
O	13.448	1.901	-0.024
C	9.41	-3.409	0.012
C	16.322	1.932	-0.042
H	16.954	1.926	-0.934
H	16.967	1.927	0.842
H	15.688	2.82	-0.038
H	8.765	-3.405	-0.872
H	8.776	-3.401	0.904
H	10.043	-4.297	0.01
H	9.084	2.746	0.005
H	11.456	2.049	-0.011
H	14.275	-3.524	-0.021
H	16.647	-4.223	-0.034
C	9.333	1.69	0.005
N	8.593	-0.607	0.014
C	8.31	0.724	0.014
C	25.172	-2.912	-0.056
S	24.149	-1.463	-0.061
C	24.436	-4.086	-0.056
C	23.051	-3.827	-0.06
C	22.722	-2.455	-0.058
N	21.893	-4.588	-0.077
C	20.831	-3.698	-0.058
C	21.317	-2.374	-0.056
C	21.809	-6.031	0.021
H	20.899	-6.377	-0.475
H	21.797	-6.373	1.064
H	22.665	-6.481	-0.489
H	18.863	-4.722	-0.041
H	24.887	-5.072	-0.049
C	19.425	-3.796	-0.05
S	20.013	-1.223	-0.056
C	18.83	-2.544	-0.049
C	35.998	-0.879	-0.018
N	35.565	-2.168	-0.017
C	35.095	0.198	-0.023
C	34.262	-2.347	-0.021
C	33.247	-1.347	-0.026
C	31.957	-2.036	-0.03
C	32.311	-3.516	-0.025
N	33.693	-3.609	-0.02
C	30.653	-1.577	-0.036
C	30.299	-0.096	-0.041
N	28.918	-0.002	-0.047
C	28.348	-1.265	-0.047
C	28.89	-3.585	-0.039
C	29.364	-2.265	-0.04
C	33.72	-0.028	-0.027
O	31.033	0.882	-0.039
O	31.579	-4.495	-0.025
C	28.181	1.246	-0.053
C	34.429	-4.858	-0.015
H	35.061	-4.925	0.877
H	35.069	-4.927	-0.9
H	33.698	-5.666	-0.017
H	27.542	1.316	0.832
H	27.548	1.311	-0.944
H	28.912	2.055	-0.053
H	27.147	-4.83	-0.045
H	29.583	-4.411	-0.034
H	33.027	0.799	-0.031
H	35.463	1.218	-0.024
C	27.515	-3.81	-0.045
N	27.046	-1.443	-0.053
C	26.611	-2.732	-0.052
C	43.781	-1.068	-0.021
S	42.596	-2.39	-0.014
C	43.185	0.183	-0.02
C	41.779	0.086	-0.012
C	41.294	-1.239	-0.014
N	40.717	0.975	0.007
C	39.559	0.214	-0.01
C	39.888	-1.158	-0.012
C	40.8	2.418	-0.091
H	39.937	2.867	0.407
H	40.825	2.759	-1.134
H	41.703	2.767	0.417
H	37.723	1.458	-0.022
H	43.746	1.11	-0.028
C	38.173	0.473	-0.014
S	38.461	-2.15	-0.009
C	37.438	-0.701	-0.014
C	54.299	-4.335	-0.084
N	54.018	-3.004	-0.084
C	53.278	-5.3	-0.076
C	52.745	-2.676	-0.077
C	51.62	-3.552	-0.069
C	50.419	-2.719	-0.063
C	50.941	-1.29	-0.069
N	52.325	-1.357	-0.077
C	49.07	-3.024	-0.054
C	48.548	-4.455	-0.048
N	47.165	-4.388	-0.038
C	46.745	-3.068	-0.037
C	47.551	-0.826	-0.047
C	47.87	-2.192	-0.047
C	51.938	-4.917	-0.069
O	49.163	-5.511	-0.051
O	50.327	-0.233	-0.067
C	46.289	-5.543	-0.031
C	53.201	-0.201	-0.084
H	53.833	-0.208	-0.977
H	53.846	-0.206	0.799
H	52.567	0.686	-0.081
H	45.644	-5.538	-0.915
H	45.655	-5.534	0.861
H	46.921	-6.431	-0.032
H	45.963	0.612	-0.037
H	48.334	-0.085	-0.054
H	51.154	-5.658	-0.063
H	53.525	-6.356	-0.077
C	46.212	-0.444	-0.038
N	45.472	-2.741	-0.029
C	45.189	-1.41	-0.029
C	62.051	-5.046	-0.099
S	61.028	-3.597	-0.104
C	61.315	-6.22	-0.098
C	59.93	-5.961	-0.103
C	59.601	-4.589	-0.1
N	58.772	-6.721	-0.12
C	57.71	-5.832	-0.1
C	58.196	-4.507	-0.099
C	58.688	-8.165	-0.021
H	57.778	-8.511	-0.518
H	58.676	-8.507	1.022
H	59.544	-8.615	-0.532
H	55.742	-6.856	-0.084
H	61.765	-7.206	-0.091
C	56.303	-5.929	-0.092
S	56.892	-3.357	-0.099
C	55.709	-4.678	-0.092
C	72.877	-3.013	-0.061
N	72.444	-4.302	-0.06
C	71.974	-1.936	-0.066
C	71.141	-4.481	-0.064
C	70.125	-3.481	-0.069
C	68.836	-4.17	-0.072
C	69.19	-5.65	-0.068
N	70.572	-5.743	-0.063
C	67.532	-3.711	-0.079
C	67.178	-2.229	-0.083
N	65.797	-2.136	-0.09
C	65.227	-3.399	-0.09
C	65.768	-5.718	-0.082
C	66.243	-4.398	-0.083
C	70.599	-2.162	-0.07
O	67.911	-1.251	-0.082
O	68.457	-6.629	-0.068
C	65.06	-0.888	-0.096
C	71.308	-6.992	-0.057
H	71.94	-7.058	0.834
H	71.948	-7.061	-0.942
H	70.577	-7.8	-0.059
H	64.421	-0.818	0.79
H	64.427	-0.823	-0.986
H	65.791	-0.078	-0.096
H	64.026	-6.964	-0.087
H	66.461	-6.545	-0.077
H	69.906	-1.335	-0.074
H	72.342	-0.916	-0.066
C	64.394	-5.944	-0.088
N	63.924	-3.577	-0.095
C	63.49	-4.866	-0.094
C	80.659	-3.202	-0.064
S	79.475	-4.523	-0.056
C	80.064	-1.951	-0.063
C	78.658	-2.048	-0.055
C	78.172	-3.373	-0.056
N	77.596	-1.159	-0.035
C	76.438	-1.92	-0.052
C	76.767	-3.292	-0.055
C	77.679	0.285	-0.134
H	76.816	0.734	0.365
H	77.704	0.625	-1.177
H	78.582	0.633	0.375
H	74.602	-0.675	-0.064
H	80.625	-1.024	-0.071
C	75.052	-1.661	-0.057
S	75.34	-4.284	-0.051
C	74.317	-2.835	-0.056
C	91.178	-6.468	-0.126
N	90.897	-5.138	-0.127
C	90.157	-7.434	-0.119
C	89.623	-4.81	-0.12
C	88.499	-5.686	-0.112
C	87.297	-4.852	-0.106
C	87.82	-3.424	-0.111
N	89.204	-3.491	-0.12
C	85.949	-5.158	-0.096
C	85.426	-6.588	-0.091
N	84.044	-6.522	-0.081
C	83.624	-5.202	-0.08
C	84.429	-2.96	-0.089
C	84.748	-4.326	-0.089
C	88.817	-7.051	-0.112
O	86.042	-7.645	-0.094
O	87.206	-2.366	-0.11
C	83.167	-7.677	-0.073
C	90.079	-2.335	-0.127
H	90.712	-2.342	-1.02
H	90.725	-2.34	0.757
H	89.446	-1.448	-0.123
H	82.523	-7.672	-0.957
H	82.534	-7.668	0.819
H	83.8	-8.565	-0.075
H	82.842	-1.522	-0.08
H	85.213	-2.219	-0.096
H	88.033	-7.792	-0.106
H	90.404	-8.49	-0.119
C	83.091	-2.578	-0.08
N	82.351	-4.875	-0.072
C	82.068	-3.544	-0.072
C	98.93	-7.179	-0.141
S	97.906	-5.73	-0.146
C	98.194	-8.354	-0.141
C	96.809	-8.095	-0.146
C	96.479	-6.723	-0.143
N	95.651	-8.855	-0.162
C	94.589	-7.965	-0.143
C	95.074	-6.641	-0.141
C	95.567	-10.299	-0.064
H	94.657	-10.645	-0.56
H	95.555	-10.64	0.979
H	96.423	-10.749	-0.574
H	92.621	-8.99	-0.127
H	98.644	-9.339	-0.134
C	93.182	-8.063	-0.135
S	93.771	-5.491	-0.142
C	92.587	-6.812	-0.134
C	109.755	-5.147	-0.103
N	109.323	-6.436	-0.102
C	108.853	-4.07	-0.109
C	108.02	-6.615	-0.106
C	107.004	-5.615	-0.112
C	105.715	-6.304	-0.115
C	106.068	-7.783	-0.11
N	107.451	-7.877	-0.105
C	104.411	-5.845	-0.121
C	104.057	-4.363	-0.126
N	102.676	-4.27	-0.133
C	102.106	-5.533	-0.132
C	102.647	-7.852	-0.125
C	103.122	-6.532	-0.125
C	107.477	-4.296	-0.113
O	104.79	-3.385	-0.125
O	105.336	-8.763	-0.111
C	101.938	-3.021	-0.139
C	108.187	-9.126	-0.1
H	108.818	-9.192	0.791
H	108.827	-9.195	-0.985
H	107.455	-9.934	-0.102
H	101.3	-2.952	0.747
H	101.306	-2.956	-1.029
H	102.669	-2.212	-0.138
H	100.904	-9.097	-0.13
H	103.34	-8.679	-0.119
H	106.784	-3.469	-0.117
H	109.221	-3.049	-0.109
C	101.273	-8.077	-0.13
N	100.803	-5.71	-0.138
C	100.369	-6.999	-0.137
C	117.538	-5.336	-0.106
S	116.354	-6.657	-0.099
C	116.943	-4.084	-0.105
C	115.537	-4.182	-0.097
C	115.051	-5.507	-0.099
N	114.474	-3.293	-0.078
C	113.317	-4.054	-0.095
C	113.646	-5.425	-0.097
C	114.558	-1.849	-0.176
H	113.695	-1.4	0.322
H	114.583	-1.508	-1.219
H	115.461	-1.501	0.332
H	111.48	-2.809	-0.107
H	117.504	-3.158	-0.113
C	111.931	-3.794	-0.1
S	112.219	-6.418	-0.094
C	111.196	-4.969	-0.099
C	128.056	-8.602	-0.169
N	127.776	-7.272	-0.169
C	127.035	-9.568	-0.162
C	126.502	-6.944	-0.163
C	125.378	-7.82	-0.154
C	124.176	-6.986	-0.148
C	124.699	-5.557	-0.154
N	126.082	-5.624	-0.162
C	122.828	-7.291	-0.139
C	122.305	-8.722	-0.133
N	120.923	-8.655	-0.124
C	120.503	-7.335	-0.123
C	121.308	-5.094	-0.132
C	121.627	-6.46	-0.132
C	125.695	-9.185	-0.154
O	122.921	-9.779	-0.136
O	124.084	-4.5	-0.152
C	120.046	-9.811	-0.116
C	126.958	-4.469	-0.17
H	127.591	-4.476	-1.062
H	127.603	-4.474	0.714
H	126.325	-3.581	-0.166
H	119.402	-9.806	-1.0
H	119.413	-9.802	0.776
H	120.679	-10.699	-0.118
H	119.721	-3.656	-0.123
H	122.092	-4.353	-0.139
H	124.911	-9.926	-0.149
H	127.283	-10.624	-0.162
C	119.969	-4.711	-0.123
N	119.229	-7.008	-0.114
C	118.947	-5.678	-0.114
C	135.809	-9.313	-0.184
S	134.785	-7.864	-0.189
C	135.073	-10.488	-0.184
C	133.688	-10.229	-0.188
C	133.358	-8.856	-0.186
N	132.53	-10.989	-0.205
C	131.468	-10.099	-0.186
C	131.953	-8.775	-0.184
C	132.446	-12.433	-0.107
H	131.535	-12.779	-0.603
H	132.434	-12.774	0.936
H	133.302	-12.883	-0.617
H	129.5	-11.124	-0.169
H	135.523	-11.473	-0.177
C	130.061	-10.197	-0.178
S	130.65	-7.624	-0.184
C	129.466	-8.946	-0.177
C	146.634	-7.281	-0.146
N	146.202	-8.57	-0.145
C	145.732	-6.203	-0.151
C	144.899	-8.749	-0.149
C	143.883	-7.749	-0.154
C	142.593	-8.438	-0.158
C	142.947	-9.917	-0.153
N	144.329	-10.01	-0.148
C	141.289	-7.979	-0.164
C	140.935	-6.497	-0.169
N	139.554	-6.404	-0.175
C	138.985	-7.666	-0.175
C	139.526	-9.986	-0.167
C	140.001	-8.666	-0.168
C	144.356	-6.429	-0.155
O	141.669	-5.519	-0.167
O	142.215	-10.896	-0.153
C	138.817	-5.155	-0.181
C	145.066	-11.259	-0.143
H	145.697	-11.326	0.749
H	145.705	-11.329	-1.028
H	144.334	-12.068	-0.145
H	138.179	-5.085	0.705
H	138.185	-5.09	-1.072
H	139.548	-4.346	-0.181
H	137.783	-11.231	-0.173
H	140.219	-10.813	-0.162
H	143.663	-5.603	-0.159
H	146.1	-5.183	-0.152
C	138.152	-10.211	-0.173
N	137.682	-7.844	-0.181
C	137.248	-9.133	-0.18
C	154.417	-7.47	-0.149
S	153.233	-8.791	-0.141
C	153.821	-6.218	-0.148
C	152.416	-6.316	-0.14
C	151.93	-7.64	-0.142
N	151.353	-5.426	-0.121
C	150.196	-6.188	-0.138
C	150.525	-7.559	-0.14
C	151.437	-3.983	-0.219
H	150.573	-3.534	0.279
H	151.462	-3.642	-1.262
H	152.34	-3.635	0.289
H	148.359	-4.943	-0.15
H	154.383	-5.291	-0.156
C	148.81	-5.928	-0.142
S	149.097	-8.551	-0.137
C	148.074	-7.102	-0.142
C	164.935	-10.736	-0.212
N	164.655	-9.406	-0.212
C	163.914	-11.702	-0.204
C	163.381	-9.077	-0.205
C	162.257	-9.953	-0.197
C	161.055	-9.12	-0.191
C	161.577	-7.691	-0.197
N	162.961	-7.758	-0.205
C	159.707	-9.425	-0.182
C	159.184	-10.856	-0.176
N	157.802	-10.789	-0.166
C	157.382	-9.469	-0.165
C	158.187	-7.228	-0.175
C	158.506	-8.594	-0.175
C	162.574	-11.318	-0.197
O	159.8	-11.912	-0.179
O	160.963	-6.634	-0.195
C	156.925	-11.944	-0.158
C	163.837	-6.603	-0.212
H	164.47	-6.609	-1.105
H	164.482	-6.608	0.672
H	163.203	-5.715	-0.209
H	156.281	-11.94	-1.043
H	156.291	-11.936	0.734
H	157.558	-12.832	-0.16
H	156.6	-5.79	-0.165
H	158.971	-6.486	-0.182
H	161.79	-12.059	-0.191
H	164.162	-12.758	-0.205
C	156.848	-6.845	-0.166
N	156.108	-9.142	-0.157
C	155.826	-7.812	-0.157
C	172.688	-11.447	-0.227
S	171.664	-9.998	-0.232
C	171.952	-12.621	-0.226
C	170.567	-12.362	-0.231
C	170.237	-10.99	-0.228
N	169.408	-13.123	-0.248
C	168.347	-12.233	-0.228
C	168.832	-10.909	-0.227
C	169.325	-14.566	-0.149
H	168.414	-14.913	-0.646
H	169.313	-14.908	0.894
H	170.18	-15.016	-0.66
H	166.379	-13.257	-0.212
H	172.402	-13.607	-0.219
C	166.94	-12.331	-0.22
S	167.529	-9.758	-0.227
C	166.345	-11.079	-0.219
H	-11.331	-0.799	-0.014
H	173.77	-11.417	-0.224
