392
AIGFU_10
C	-1.028	-1.818	-0.0
N	-2.021	-2.747	0.0
C	-1.286	-0.441	-0.0
C	-3.245	-2.269	0.0
C	-3.65	-0.901	-0.0
C	-5.115	-0.88	-0.0
C	-5.521	-2.347	0.0
N	-4.357	-3.097	0.0
C	-6.033	0.151	-0.0
C	-5.626	1.62	-0.0
N	-6.789	2.369	-0.0
C	-7.901	1.54	-0.0
C	-8.547	-0.754	0.0
C	-7.497	0.173	-0.0
C	-2.602	0.027	-0.0
O	-4.511	2.121	-0.0
O	-6.635	-2.849	0.0
C	-6.829	3.818	-0.0
C	-4.318	-4.546	0.0
H	-3.795	-4.913	-0.888
H	-3.796	-4.913	0.889
H	-5.35	-4.899	-0.0
H	-7.352	4.185	-0.889
H	-7.352	4.185	0.888
H	-5.797	4.172	-0.0
H	-10.688	-0.986	0.0
H	-8.34	-1.813	0.0
H	-2.809	1.085	-0.0
H	-0.46	0.261	-0.0
C	-9.861	-0.286	0.0
N	-9.126	2.02	-0.0
C	-10.119	1.092	0.0
C	2.519	-2.214	-0.0
C	2.208	-3.557	0.0
O	1.367	-1.477	-0.0
H	2.928	-4.361	0.0
H	0.183	-4.535	0.0
C	0.796	-3.647	0.0
C	0.317	-2.354	-0.0
C	12.436	2.523	-0.0
N	11.334	3.319	-0.0
C	12.354	1.124	-0.0
C	10.179	2.69	-0.0
C	9.95	1.281	-0.0
C	8.5	1.075	-0.0
C	7.912	2.48	-0.0
N	8.972	3.37	-0.0
C	7.72	-0.063	0.0
C	8.309	-1.469	0.0
N	7.249	-2.359	0.0
C	6.042	-1.677	0.0
C	5.112	0.517	-0.0
C	6.27	-0.27	0.0
C	11.108	0.494	0.0
O	9.478	-1.825	0.0
O	6.743	2.837	-0.0
C	7.393	-3.801	0.0
C	8.828	4.812	-0.0
H	9.3	5.243	0.888
H	9.3	5.243	-0.889
H	7.76	5.032	-0.0
H	6.921	-4.231	0.889
H	6.92	-4.231	-0.888
H	8.461	-4.022	0.0
H	2.958	0.476	-0.0
H	5.183	1.593	-0.0
H	11.036	-0.583	0.0
H	13.261	0.532	0.0
C	3.867	-0.113	-0.0
N	4.888	-2.307	0.0
C	3.785	-1.513	-0.0
C	15.905	3.363	-0.0
C	15.426	4.656	-0.0
O	14.855	2.486	-0.0
H	16.039	5.544	-0.0
H	13.294	5.37	-0.0
C	14.014	4.566	-0.0
C	13.703	3.224	-0.0
C	26.34	-0.083	-0.0
N	25.347	-1.012	-0.0
C	26.082	1.295	-0.0
C	24.122	-0.534	-0.0
C	23.718	0.835	-0.0
C	22.253	0.856	-0.0
C	21.847	-0.612	-0.0
N	23.011	-1.361	-0.0
C	21.335	1.887	-0.0
C	21.742	3.356	-0.0
N	20.579	4.104	-0.0
C	19.467	3.276	-0.0
C	18.821	0.982	-0.0
C	19.871	1.909	-0.0
C	24.766	1.762	-0.0
O	22.857	3.856	-0.0
O	20.733	-1.114	-0.0
C	20.539	5.553	-0.0
C	23.05	-2.81	-0.0
H	23.573	-3.177	-0.889
H	23.572	-3.177	0.889
H	22.018	-3.163	-0.0
H	20.016	5.92	-0.889
H	20.016	5.92	0.888
H	21.57	5.907	-0.0
H	16.679	0.75	0.0
H	19.028	-0.077	0.0
H	24.559	2.821	-0.0
H	26.908	1.996	-0.0
C	17.507	1.45	0.0
N	18.242	3.755	-0.0
C	17.249	2.828	-0.0
C	29.887	-0.479	-0.0
C	29.576	-1.821	-0.0
O	28.735	0.259	-0.0
H	30.296	-2.625	-0.0
H	27.551	-2.8	-0.0
C	28.164	-1.911	-0.0
C	27.685	-0.618	-0.0
C	39.804	4.258	-0.0
N	38.702	5.054	-0.0
C	39.721	2.859	-0.0
C	37.547	4.425	-0.0
C	37.318	3.017	-0.0
C	35.868	2.811	-0.0
C	35.28	4.215	-0.0
N	36.34	5.106	-0.0
C	35.088	1.672	-0.0
C	35.677	0.266	0.0
N	34.617	-0.623	0.0
C	33.41	0.058	-0.0
C	32.48	2.253	-0.0
C	33.638	1.466	-0.0
C	38.476	2.229	-0.0
O	36.846	-0.089	0.0
O	34.111	4.573	-0.0
C	34.761	-2.066	0.0
C	36.196	6.548	-0.0
H	36.668	6.978	0.888
H	36.667	6.978	-0.889
H	35.128	6.768	-0.0
H	34.289	-2.495	0.889
H	34.288	-2.496	-0.888
H	35.829	-2.286	-0.0
H	30.326	2.212	-0.0
H	32.551	3.329	-0.0
H	38.403	1.153	-0.0
H	40.629	2.267	-0.0
C	31.235	1.622	-0.0
N	32.256	-0.572	-0.0
C	31.153	0.223	-0.0
C	43.272	5.099	-0.0
C	42.794	6.391	-0.0
O	42.222	4.221	-0.0
H	43.407	7.28	-0.0
H	40.662	7.106	-0.0
C	41.382	6.302	-0.0
C	41.071	4.959	-0.0
C	53.708	1.653	-0.0
N	52.715	0.724	-0.0
C	53.45	3.03	-0.0
C	51.49	1.202	-0.0
C	51.086	2.57	-0.0
C	49.621	2.591	-0.0
C	49.215	1.124	-0.0
N	50.379	0.375	-0.0
C	48.703	3.622	-0.0
C	49.11	5.091	-0.0
N	47.947	5.84	-0.0
C	46.835	5.011	-0.0
C	46.189	2.717	-0.0
C	47.239	3.644	-0.0
C	52.134	3.498	-0.0
O	50.225	5.592	-0.0
O	48.101	0.622	-0.0
C	47.907	7.289	-0.0
C	50.418	-1.075	-0.0
H	50.94	-1.442	-0.889
H	50.94	-1.442	0.888
H	49.386	-1.427	-0.0
H	47.384	7.656	-0.889
H	47.384	7.656	0.888
H	48.938	7.643	-0.0
H	44.047	2.485	-0.0
H	46.396	1.658	-0.0
H	51.927	4.556	-0.0
H	54.275	3.732	-0.0
C	44.875	3.185	-0.0
N	45.61	5.491	-0.0
C	44.617	4.563	-0.0
C	57.255	1.257	-0.0
C	56.943	-0.086	-0.0
O	56.103	1.995	-0.0
H	57.664	-0.89	-0.0
H	54.919	-1.064	-0.0
C	55.532	-0.175	-0.0
C	55.053	1.117	-0.0
C	67.172	5.994	-0.0
N	66.07	6.79	-0.0
C	67.089	4.595	-0.0
C	64.915	6.161	-0.0
C	64.686	4.752	-0.0
C	63.236	4.547	-0.0
C	62.648	5.951	-0.0
N	63.708	6.841	-0.0
C	62.456	3.408	-0.0
C	63.044	2.002	-0.0
N	61.985	1.112	-0.0
C	60.778	1.794	-0.0
C	59.847	3.988	-0.0
C	61.006	3.201	-0.0
C	65.844	3.965	-0.0
O	64.214	1.646	-0.0
O	61.479	6.308	-0.0
C	62.129	-0.33	-0.0
C	63.564	8.284	-0.0
H	64.036	8.714	0.888
H	64.035	8.714	-0.889
H	62.496	8.503	-0.0
H	61.657	-0.76	0.889
H	61.656	-0.76	-0.888
H	63.197	-0.551	-0.0
H	57.694	3.948	-0.0
H	59.919	5.065	-0.0
H	65.771	2.888	-0.0
H	67.997	4.003	-0.0
C	58.603	3.358	-0.0
N	59.623	1.164	-0.0
C	58.521	1.958	-0.0
C	70.64	6.834	-0.0
C	70.162	8.127	-0.0
O	69.59	5.957	-0.0
H	70.775	9.016	-0.0
H	68.03	8.841	-0.0
C	68.75	8.038	-0.0
C	68.439	6.695	-0.0
C	81.076	3.388	-0.0
N	80.083	2.459	-0.0
C	80.818	4.766	-0.0
C	78.858	2.938	-0.0
C	78.454	4.306	-0.0
C	76.989	4.327	-0.0
C	76.583	2.859	-0.0
N	77.747	2.11	-0.0
C	76.071	5.358	-0.0
C	76.478	6.827	-0.001
N	75.315	7.575	-0.001
C	74.203	6.747	-0.0
C	73.557	4.453	-0.0
C	74.607	5.38	-0.0
C	79.502	5.233	-0.0
O	77.593	7.327	-0.001
O	75.468	2.357	-0.0
C	75.275	9.025	-0.001
C	77.786	0.661	-0.0
H	78.308	0.294	-0.889
H	78.308	0.294	0.888
H	76.754	0.308	-0.0
H	74.752	9.391	-0.889
H	74.752	9.391	0.888
H	76.306	9.378	-0.0
H	71.415	4.221	-0.0
H	73.764	3.394	-0.0
H	79.295	6.292	-0.0
H	81.643	5.467	-0.0
C	72.243	4.921	-0.0
N	72.978	7.226	-0.0
C	71.985	6.299	-0.0
C	84.623	2.992	-0.0
C	84.311	1.65	-0.0
O	83.471	3.73	-0.0
H	85.032	0.846	-0.0
H	82.286	0.672	-0.0
C	82.9	1.56	-0.0
C	82.421	2.853	-0.0
C	94.54	7.729	-0.0
N	93.438	8.525	-0.0
C	94.457	6.33	-0.0
C	92.283	7.896	-0.0
C	92.054	6.488	-0.0
C	90.604	6.282	-0.0
C	90.016	7.687	-0.0
N	91.076	8.577	-0.0
C	89.823	5.143	-0.0
C	90.412	3.737	-0.0
N	89.353	2.848	-0.0
C	88.146	3.529	-0.0
C	87.215	5.724	-0.0
C	88.374	4.937	-0.0
C	93.211	5.7	-0.0
O	91.582	3.382	-0.0
O	88.847	8.044	-0.0
C	89.497	1.405	-0.0
C	90.932	10.019	-0.0
H	91.404	10.449	0.888
H	91.403	10.449	-0.889
H	89.863	10.239	-0.0
H	89.025	0.976	0.888
H	89.024	0.976	-0.889
H	90.565	1.185	-0.0
H	85.062	5.683	-0.001
H	87.287	6.8	-0.001
H	93.139	4.624	-0.0
H	95.365	5.738	-0.0
C	85.971	5.093	-0.0
N	86.991	2.899	-0.0
C	85.889	3.694	-0.0
C	98.008	8.57	-0.0
C	97.53	9.862	-0.0
O	96.958	7.693	-0.0
H	98.143	10.751	-0.001
H	95.397	10.577	-0.001
C	96.118	9.773	-0.0
C	95.806	8.43	-0.0
C	108.444	5.124	-0.001
N	107.451	4.195	-0.0
C	108.185	6.501	-0.001
C	106.226	4.673	-0.0
C	105.822	6.041	-0.001
C	104.357	6.062	-0.001
C	103.951	4.595	-0.0
N	105.115	3.846	-0.0
C	103.439	7.093	-0.001
C	103.846	8.562	-0.001
N	102.682	9.311	-0.001
C	101.571	8.482	-0.001
C	100.925	6.188	-0.0
C	101.975	7.115	-0.001
C	106.87	6.969	-0.001
O	104.961	9.063	-0.001
O	102.836	4.093	-0.0
C	102.643	10.76	-0.001
C	105.154	2.397	-0.0
H	105.676	2.029	-0.889
H	105.676	2.029	0.888
H	104.122	2.044	-0.001
H	102.12	11.127	-0.889
H	102.12	11.127	0.888
H	103.674	11.114	-0.001
H	98.783	5.957	-0.0
H	101.132	5.13	-0.0
H	106.662	8.027	-0.001
H	109.011	7.203	-0.001
C	99.611	6.657	-0.0
N	100.346	8.962	-0.001
C	99.352	8.035	-0.0
C	111.991	4.728	-0.001
C	111.679	3.385	-0.0
O	110.838	5.466	-0.001
H	112.4	2.581	-0.0
H	109.654	2.407	-0.0
C	110.268	3.296	-0.0
C	109.789	4.588	-0.0
C	121.908	9.465	-0.001
N	120.806	10.261	-0.001
C	121.825	8.066	-0.0
C	119.651	9.632	-0.001
C	119.422	8.223	-0.0
C	117.972	8.018	-0.0
C	117.384	9.422	-0.001
N	118.444	10.312	-0.001
C	117.191	6.879	-0.0
C	117.78	5.473	-0.0
N	116.721	4.584	-0.0
C	115.514	5.265	-0.0
C	114.583	7.459	-0.001
C	115.742	6.672	-0.0
C	120.579	7.436	-0.0
O	118.95	5.117	-0.0
O	116.215	9.779	-0.001
C	116.865	3.141	-0.0
C	118.299	11.755	-0.001
H	118.771	12.185	0.888
H	118.771	12.185	-0.889
H	117.231	11.974	-0.0
H	116.393	2.711	0.888
H	116.392	2.711	-0.889
H	117.933	2.92	-0.0
H	112.43	7.419	-0.001
H	114.655	8.536	-0.001
H	120.507	6.36	-0.0
H	122.733	7.474	-0.0
C	113.339	6.829	-0.001
N	114.359	4.635	-0.0
C	113.257	5.429	-0.001
C	125.376	10.306	-0.001
C	124.898	11.598	-0.001
O	124.326	9.428	-0.001
H	125.511	12.487	-0.001
H	122.765	12.313	-0.001
C	123.486	11.509	-0.001
C	123.174	10.166	-0.001
H	-11.147	1.43	0.0
H	126.422	10.027	-0.001
