592
BDONBT_10
C	0.487	1.35	0.0
C	1.305	2.49	0.0
N	1.026	0.098	0.0
C	8.113	1.593	0.0
C	7.219	0.498	0.0
C	7.779	-0.795	0.0
C	9.155	-0.87	0.0
C	10.049	0.226	0.0
C	9.489	1.519	0.0
O	7.452	2.804	0.0
C	6.099	2.559	0.001
C	5.872	1.065	0.001
O	9.816	-2.08	0.0
C	11.169	-1.835	0.0
C	11.396	-0.341	0.0
O	11.946	-2.757	0.0
O	5.322	3.481	0.0
C	12.658	0.218	0.0
C	4.61	0.506	0.0
C	3.272	1.094	0.0
C	2.335	0.018	0.0
N	3.002	-1.198	0.001
C	4.37	-1.001	0.001
C	13.996	-0.369	-0.0
C	14.932	0.707	-0.0
N	14.265	1.924	0.0
C	12.897	1.726	0.0
C	2.698	2.369	0.0
C	14.571	-1.644	-0.0
C	14.901	3.227	0.0
C	2.365	-2.501	0.0
O	5.181	-1.914	0.001
O	12.086	2.639	0.0
H	7.168	-1.683	0.0
H	10.1	2.407	0.0
H	3.317	3.253	0.0
H	13.954	-2.528	-0.0
H	16.415	-2.745	-0.0
H	0.856	3.472	0.0
H	15.528	3.344	-0.889
H	15.528	3.344	0.889
H	14.11	3.976	0.0
H	1.738	-2.618	-0.889
H	1.738	-2.618	0.89
H	3.157	-3.251	0.001
N	16.241	0.628	-0.0
C	15.964	-1.763	-0.0
C	16.781	-0.623	-0.0
C	-3.941	1.272	0.0
C	-3.248	2.537	0.0
C	-3.124	0.153	0.0
N	-3.817	3.747	-0.0
N	-1.318	3.85	-0.0
S	-2.612	4.857	-0.0
H	-1.153	-0.716	0.0
H	-3.604	-0.818	0.0
C	-1.712	0.212	0.0
C	-1.785	2.597	0.0
C	-0.99	1.394	0.0
C	-21.484	-2.208	-0.001
C	-20.575	-3.275	-0.001
N	-21.051	-0.915	-0.002
C	-13.865	-1.819	-0.001
C	-14.846	-0.802	-0.001
C	-14.395	0.533	-0.001
C	-13.029	0.722	-0.001
C	-12.049	-0.296	-0.001
C	-12.499	-1.631	-0.001
O	-14.423	-3.08	-0.001
C	-15.791	-2.948	-0.002
C	-16.142	-1.478	-0.001
O	-12.471	1.982	-0.001
C	-11.102	1.85	-0.001
C	-10.752	0.38	-0.001
O	-10.404	2.833	-0.001
O	-16.489	-3.931	-0.001
C	-9.449	-0.073	-0.001
C	-17.445	-1.025	-0.001
C	-18.73	-1.722	-0.001
C	-19.753	-0.727	-0.002
N	-19.189	0.54	-0.002
C	-17.809	0.457	-0.001
C	-8.164	0.623	-0.0
C	-7.142	-0.372	-0.0
N	-7.707	-1.64	-0.0
C	-9.086	-1.556	-0.001
C	-19.196	-3.04	-0.001
C	-7.696	1.941	-0.0
C	-6.964	-2.886	-0.0
C	-19.931	1.786	-0.002
O	-17.077	1.434	-0.001
O	-9.819	-2.532	-0.001
H	-15.078	1.368	-0.001
H	-11.817	-2.466	-0.001
H	-18.507	-3.87	-0.001
H	-8.385	2.771	-0.0
H	-5.949	3.191	0.0
H	-20.941	-4.292	-0.001
H	-6.33	-2.951	0.889
H	-6.33	-2.951	-0.889
H	-7.692	-3.698	-0.001
H	-20.566	1.851	0.888
H	-20.566	1.851	-0.891
H	-19.204	2.599	-0.002
N	-5.844	-0.185	-0.0
C	-6.318	2.175	-0.0
C	-5.41	1.106	0.0
C	-25.904	-2.496	-0.002
C	-25.109	-3.699	-0.001
C	-25.182	-1.313	-0.002
N	-25.576	-4.952	-0.001
N	-23.077	-4.848	-0.001
S	-24.283	-5.959	-0.001
H	-23.29	-0.284	-0.002
H	-25.741	-0.385	-0.002
C	-23.771	-1.255	-0.002
C	-23.646	-3.638	-0.001
C	-22.953	-2.373	-0.001
C	-43.675	-0.478	-0.001
C	-42.857	0.661	-0.001
N	-43.136	-1.73	-0.001
C	-36.049	-0.235	-0.001
C	-36.943	-1.33	-0.001
C	-36.383	-2.624	-0.001
C	-35.007	-2.699	-0.001
C	-34.113	-1.603	-0.001
C	-34.673	-0.31	-0.001
O	-36.71	0.975	-0.001
C	-38.063	0.731	-0.001
C	-38.29	-0.764	-0.001
O	-34.346	-3.908	-0.001
C	-32.993	-3.664	-0.001
C	-32.766	-2.17	-0.001
O	-32.216	-4.585	-0.001
O	-38.84	1.652	-0.001
C	-31.504	-1.61	-0.001
C	-39.552	-1.323	-0.001
C	-40.89	-0.734	-0.001
C	-41.827	-1.81	-0.001
N	-41.16	-3.027	-0.001
C	-39.792	-2.83	-0.001
C	-30.166	-2.198	-0.001
C	-29.23	-1.122	-0.001
N	-29.897	0.095	-0.001
C	-31.265	-0.103	-0.001
C	-41.464	0.541	-0.001
C	-29.591	-3.473	-0.001
C	-29.261	1.398	-0.001
C	-41.797	-4.33	-0.001
O	-38.981	-3.743	-0.001
O	-32.076	0.81	-0.001
H	-36.994	-3.512	-0.001
H	-34.062	0.578	-0.001
H	-40.845	1.424	-0.001
H	-30.208	-4.357	-0.001
H	-27.747	-4.574	-0.002
H	-43.306	1.644	-0.001
H	-28.634	1.515	-0.891
H	-28.634	1.515	0.888
H	-30.052	2.148	-0.001
H	-42.424	-4.447	-0.89
H	-42.424	-4.447	0.888
H	-41.005	-5.079	-0.001
N	-27.921	-1.201	-0.002
C	-28.198	-3.592	-0.002
C	-27.382	-2.452	-0.002
C	-48.103	-0.557	-0.001
C	-47.41	0.708	-0.001
C	-47.286	-1.675	-0.001
N	-47.979	1.918	-0.002
N	-45.48	2.022	-0.001
S	-46.774	3.028	-0.002
H	-45.315	-2.545	-0.001
H	-47.766	-2.646	-0.001
C	-45.874	-1.617	-0.001
C	-45.947	0.769	-0.001
C	-45.152	-0.435	-0.001
C	-65.646	-4.036	-0.003
C	-64.737	-5.104	-0.003
N	-65.213	-2.744	-0.003
C	-58.027	-3.648	-0.003
C	-59.008	-2.631	-0.003
C	-58.557	-1.295	-0.003
C	-57.192	-1.107	-0.002
C	-56.211	-2.125	-0.002
C	-56.661	-3.46	-0.002
O	-58.585	-4.909	-0.003
C	-59.953	-4.777	-0.003
C	-60.304	-3.307	-0.003
O	-56.633	0.153	-0.002
C	-55.264	0.021	-0.002
C	-54.914	-1.448	-0.002
O	-54.566	1.004	-0.002
O	-60.651	-5.76	-0.003
C	-53.611	-1.902	-0.002
C	-61.607	-2.853	-0.003
C	-62.892	-3.551	-0.003
C	-63.915	-2.556	-0.003
N	-63.351	-1.289	-0.003
C	-61.971	-1.372	-0.003
C	-52.326	-1.206	-0.002
C	-51.304	-2.2	-0.002
N	-51.869	-3.468	-0.002
C	-53.248	-3.385	-0.002
C	-63.358	-4.869	-0.003
C	-51.858	0.112	-0.002
C	-51.126	-4.714	-0.002
C	-64.093	-0.043	-0.003
O	-61.239	-0.395	-0.003
O	-53.981	-4.361	-0.002
H	-59.24	-0.461	-0.003
H	-55.979	-4.294	-0.002
H	-62.669	-5.699	-0.003
H	-52.547	0.943	-0.002
H	-50.111	1.362	-0.001
H	-65.103	-6.12	-0.003
H	-50.492	-4.779	0.888
H	-50.492	-4.779	-0.891
H	-51.854	-5.527	-0.002
H	-64.728	0.022	0.886
H	-64.728	0.022	-0.892
H	-63.366	0.77	-0.003
N	-50.006	-2.014	-0.001
C	-50.48	0.346	-0.001
C	-49.572	-0.723	-0.001
C	-70.066	-4.324	-0.003
C	-69.271	-5.528	-0.003
C	-69.344	-3.142	-0.003
N	-69.738	-6.78	-0.003
N	-67.239	-6.677	-0.003
S	-68.445	-7.787	-0.003
H	-67.452	-2.113	-0.003
H	-69.903	-2.214	-0.003
C	-67.933	-3.083	-0.003
C	-67.808	-5.467	-0.003
C	-67.115	-4.202	-0.003
C	-87.837	-2.307	-0.002
C	-87.019	-1.168	-0.003
N	-87.298	-3.559	-0.002
C	-80.212	-2.064	-0.002
C	-81.105	-3.159	-0.002
C	-80.546	-4.452	-0.002
C	-79.169	-4.527	-0.002
C	-78.275	-3.432	-0.002
C	-78.835	-2.139	-0.002
O	-80.872	-0.854	-0.002
C	-82.225	-1.098	-0.002
C	-82.452	-2.592	-0.002
O	-78.508	-5.737	-0.002
C	-77.155	-5.492	-0.003
C	-76.928	-3.999	-0.003
O	-76.378	-6.414	-0.003
O	-83.002	-0.177	-0.002
C	-75.666	-3.439	-0.003
C	-83.714	-3.152	-0.002
C	-85.052	-2.563	-0.002
C	-85.989	-3.639	-0.002
N	-85.322	-4.856	-0.002
C	-83.954	-4.659	-0.002
C	-74.328	-4.027	-0.003
C	-73.392	-2.951	-0.003
N	-74.059	-1.734	-0.003
C	-75.427	-1.931	-0.003
C	-85.626	-1.288	-0.002
C	-73.753	-5.302	-0.003
C	-73.423	-0.431	-0.003
C	-85.959	-6.159	-0.002
O	-83.143	-5.572	-0.002
O	-76.238	-1.019	-0.002
H	-81.156	-5.341	-0.002
H	-78.224	-1.251	-0.002
H	-85.008	-0.404	-0.002
H	-74.37	-6.186	-0.003
H	-71.909	-6.403	-0.003
H	-87.468	-0.185	-0.003
H	-72.796	-0.314	-0.892
H	-72.796	-0.314	0.886
H	-74.214	0.319	-0.002
H	-86.586	-6.276	-0.892
H	-86.586	-6.276	0.887
H	-85.167	-6.908	-0.002
N	-72.083	-3.03	-0.003
C	-72.36	-5.421	-0.003
C	-71.544	-4.28	-0.003
C	-92.265	-2.385	-0.003
C	-91.572	-1.121	-0.003
C	-91.448	-3.504	-0.002
N	-92.141	0.089	-0.003
N	-89.642	0.193	-0.003
S	-90.936	1.2	-0.003
H	-89.477	-4.373	-0.002
H	-91.928	-4.475	-0.002
C	-90.036	-3.446	-0.002
C	-90.109	-1.06	-0.003
C	-89.314	-2.263	-0.003
C	-109.808	-5.865	-0.004
C	-108.899	-6.933	-0.004
N	-109.375	-4.573	-0.004
C	-102.189	-5.477	-0.004
C	-103.17	-4.459	-0.004
C	-102.719	-3.124	-0.004
C	-101.354	-2.936	-0.004
C	-100.373	-3.954	-0.004
C	-100.823	-5.288	-0.004
O	-102.747	-6.738	-0.004
C	-104.115	-6.606	-0.004
C	-104.466	-5.135	-0.004
O	-100.795	-1.675	-0.004
C	-99.426	-1.807	-0.003
C	-99.076	-3.277	-0.003
O	-98.728	-0.825	-0.003
O	-104.813	-7.588	-0.004
C	-97.773	-3.731	-0.003
C	-105.769	-4.682	-0.004
C	-107.054	-5.38	-0.004
C	-108.077	-4.385	-0.004
N	-107.513	-3.117	-0.004
C	-106.133	-3.2	-0.004
C	-96.488	-3.034	-0.003
C	-95.466	-4.029	-0.003
N	-96.031	-5.297	-0.003
C	-97.41	-5.213	-0.003
C	-107.52	-6.698	-0.004
C	-96.02	-1.716	-0.003
C	-95.288	-6.543	-0.003
C	-108.255	-1.871	-0.004
O	-105.401	-2.223	-0.004
O	-98.143	-6.19	-0.003
H	-103.402	-2.29	-0.004
H	-100.141	-6.123	-0.004
H	-106.831	-7.527	-0.004
H	-96.709	-0.886	-0.003
H	-94.273	-0.467	-0.003
H	-109.265	-7.949	-0.004
H	-94.654	-6.608	0.886
H	-94.654	-6.608	-0.892
H	-96.016	-7.356	-0.003
H	-108.89	-1.806	0.885
H	-108.89	-1.806	-0.894
H	-107.528	-1.059	-0.004
N	-94.168	-3.842	-0.003
C	-94.642	-1.483	-0.003
C	-93.734	-2.551	-0.003
C	-114.228	-6.153	-0.004
C	-113.433	-7.356	-0.004
C	-113.506	-4.971	-0.004
N	-113.9	-8.609	-0.004
N	-111.401	-8.506	-0.004
S	-112.607	-9.616	-0.004
H	-111.614	-3.941	-0.004
H	-114.065	-4.043	-0.005
C	-112.095	-4.912	-0.004
C	-111.97	-7.296	-0.004
C	-111.277	-6.031	-0.004
C	-131.999	-4.136	-0.004
C	-131.181	-2.996	-0.004
N	-131.46	-5.388	-0.004
C	-124.374	-3.893	-0.004
C	-125.267	-4.988	-0.004
C	-124.708	-6.281	-0.004
C	-123.331	-6.356	-0.004
C	-122.437	-5.261	-0.004
C	-122.997	-3.968	-0.004
O	-125.034	-2.682	-0.004
C	-126.387	-2.927	-0.003
C	-126.614	-4.421	-0.004
O	-122.67	-7.566	-0.004
C	-121.317	-7.321	-0.004
C	-121.09	-5.827	-0.004
O	-120.54	-8.243	-0.004
O	-127.164	-2.006	-0.004
C	-119.828	-5.268	-0.004
C	-127.876	-4.981	-0.004
C	-129.214	-4.392	-0.004
C	-130.151	-5.468	-0.004
N	-129.484	-6.684	-0.004
C	-128.116	-6.487	-0.004
C	-118.49	-5.855	-0.004
C	-117.554	-4.78	-0.004
N	-118.221	-3.563	-0.004
C	-119.589	-3.76	-0.004
C	-129.788	-3.117	-0.004
C	-117.915	-7.13	-0.004
C	-117.585	-2.26	-0.004
C	-130.121	-7.987	-0.004
O	-127.305	-7.4	-0.004
O	-120.4	-2.848	-0.004
H	-125.318	-7.169	-0.004
H	-122.386	-3.079	-0.004
H	-129.17	-2.233	-0.004
H	-118.532	-8.015	-0.004
H	-116.071	-8.231	-0.004
H	-131.63	-2.014	-0.004
H	-116.958	-2.142	-0.893
H	-116.958	-2.142	0.885
H	-118.376	-1.51	-0.004
H	-130.748	-8.105	-0.893
H	-130.748	-8.104	0.886
H	-129.329	-8.737	-0.004
N	-116.245	-4.858	-0.004
C	-116.522	-7.249	-0.004
C	-115.706	-6.109	-0.004
C	-136.427	-4.214	-0.004
C	-135.734	-2.949	-0.004
C	-135.61	-5.333	-0.004
N	-136.303	-1.739	-0.004
N	-133.804	-1.636	-0.004
S	-135.098	-0.629	-0.004
H	-133.639	-6.202	-0.004
H	-136.09	-6.304	-0.004
C	-134.198	-5.274	-0.004
C	-134.271	-2.889	-0.004
C	-133.476	-4.092	-0.004
C	-153.97	-7.694	-0.006
C	-153.061	-8.762	-0.005
N	-153.537	-6.402	-0.006
C	-146.351	-7.306	-0.005
C	-147.332	-6.288	-0.005
C	-146.881	-4.953	-0.005
C	-145.516	-4.764	-0.005
C	-144.535	-5.782	-0.005
C	-144.985	-7.117	-0.005
O	-146.909	-8.566	-0.005
C	-148.277	-8.435	-0.006
C	-148.628	-6.964	-0.005
O	-144.957	-3.504	-0.005
C	-143.588	-3.636	-0.005
C	-143.238	-5.106	-0.005
O	-142.891	-2.653	-0.005
O	-148.976	-9.417	-0.005
C	-141.935	-5.559	-0.005
C	-149.931	-6.511	-0.006
C	-151.216	-7.208	-0.006
C	-152.239	-6.214	-0.006
N	-151.675	-4.946	-0.006
C	-150.295	-5.029	-0.006
C	-140.65	-4.863	-0.004
C	-139.628	-5.858	-0.004
N	-140.193	-7.126	-0.004
C	-141.572	-7.042	-0.005
C	-151.682	-8.526	-0.005
C	-140.182	-3.545	-0.004
C	-139.45	-8.372	-0.004
C	-152.417	-3.7	-0.006
O	-149.563	-4.052	-0.006
O	-142.305	-8.019	-0.005
H	-147.564	-4.118	-0.005
H	-144.303	-7.952	-0.005
H	-150.993	-9.356	-0.005
H	-140.871	-2.715	-0.004
H	-138.435	-2.295	-0.004
H	-153.427	-9.778	-0.005
H	-138.816	-8.437	0.885
H	-138.816	-8.437	-0.894
H	-140.178	-9.184	-0.005
H	-153.052	-3.635	0.884
H	-153.052	-3.635	-0.895
H	-151.69	-2.888	-0.006
N	-138.33	-5.671	-0.004
C	-138.804	-3.311	-0.004
C	-137.896	-4.38	-0.004
C	-158.39	-7.982	-0.006
C	-157.595	-9.185	-0.006
C	-157.668	-6.799	-0.006
N	-158.062	-10.438	-0.005
N	-155.563	-10.334	-0.005
S	-156.769	-11.445	-0.005
H	-155.776	-5.77	-0.006
H	-158.227	-5.872	-0.006
C	-156.257	-6.741	-0.006
C	-156.132	-9.124	-0.005
C	-155.439	-7.86	-0.006
C	-176.161	-5.965	-0.005
C	-175.343	-4.825	-0.005
N	-175.622	-7.216	-0.005
C	-168.536	-5.721	-0.005
C	-169.429	-6.817	-0.005
C	-168.87	-8.11	-0.005
C	-167.493	-8.185	-0.005
C	-166.599	-7.089	-0.005
C	-167.159	-5.796	-0.005
O	-169.196	-4.511	-0.005
C	-170.549	-4.755	-0.005
C	-170.776	-6.25	-0.005
O	-166.832	-9.394	-0.005
C	-165.479	-9.15	-0.005
C	-165.252	-7.656	-0.005
O	-164.702	-10.071	-0.005
O	-171.326	-3.834	-0.005
C	-163.99	-7.096	-0.005
C	-172.038	-6.809	-0.005
C	-173.376	-6.221	-0.005
C	-174.313	-7.296	-0.005
N	-173.646	-8.513	-0.005
C	-172.278	-8.316	-0.005
C	-162.652	-7.684	-0.005
C	-161.716	-6.608	-0.006
N	-162.383	-5.391	-0.005
C	-163.751	-5.589	-0.005
C	-173.95	-4.946	-0.005
C	-162.077	-8.959	-0.006
C	-161.747	-4.088	-0.005
C	-174.283	-9.816	-0.005
O	-171.467	-9.229	-0.005
O	-164.562	-4.676	-0.005
H	-169.48	-8.998	-0.005
H	-166.548	-4.908	-0.005
H	-173.332	-4.062	-0.005
H	-162.694	-9.843	-0.006
H	-160.233	-10.06	-0.006
H	-175.792	-3.843	-0.005
H	-161.12	-3.971	-0.895
H	-161.12	-3.971	0.884
H	-162.539	-3.339	-0.005
H	-174.91	-9.933	-0.894
H	-174.91	-9.933	0.884
H	-173.491	-10.566	-0.005
N	-160.407	-6.687	-0.006
C	-160.684	-9.078	-0.006
C	-159.868	-7.938	-0.006
C	-180.589	-6.043	-0.005
C	-179.896	-4.778	-0.005
C	-179.772	-7.162	-0.005
N	-180.465	-3.568	-0.006
N	-177.966	-3.465	-0.006
S	-179.26	-2.458	-0.006
H	-177.801	-8.031	-0.005
H	-180.252	-8.132	-0.005
C	-178.36	-7.103	-0.005
C	-178.433	-4.717	-0.005
C	-177.638	-5.921	-0.005
C	-198.132	-9.522	-0.007
C	-197.223	-10.59	-0.007
N	-197.699	-8.23	-0.007
C	-190.513	-9.134	-0.007
C	-191.494	-8.117	-0.007
C	-191.043	-6.782	-0.007
C	-189.678	-6.593	-0.006
C	-188.697	-7.611	-0.006
C	-189.147	-8.946	-0.006
O	-191.071	-10.395	-0.007
C	-192.439	-10.263	-0.007
C	-192.79	-8.793	-0.007
O	-189.119	-5.333	-0.006
C	-187.75	-5.465	-0.006
C	-187.4	-6.935	-0.006
O	-187.053	-4.482	-0.006
O	-193.138	-11.246	-0.007
C	-186.097	-7.388	-0.006
C	-194.093	-8.34	-0.007
C	-195.378	-9.037	-0.007
C	-196.401	-8.042	-0.007
N	-195.837	-6.775	-0.007
C	-194.457	-6.858	-0.007
C	-184.812	-6.692	-0.006
C	-183.79	-7.687	-0.006
N	-184.355	-8.955	-0.006
C	-185.734	-8.871	-0.006
C	-195.845	-10.355	-0.007
C	-184.344	-5.374	-0.006
C	-183.612	-10.2	-0.006
C	-196.579	-5.529	-0.007
O	-193.725	-5.881	-0.007
O	-186.467	-9.847	-0.006
H	-191.726	-5.947	-0.007
H	-188.465	-9.78	-0.006
H	-195.155	-11.185	-0.007
H	-185.033	-4.544	-0.006
H	-182.597	-4.124	-0.005
H	-197.589	-11.607	-0.007
H	-182.978	-10.266	0.883
H	-182.978	-10.265	-0.895
H	-184.34	-11.013	-0.006
H	-197.214	-5.464	0.882
H	-197.214	-5.464	-0.896
H	-195.852	-4.716	-0.007
N	-182.492	-7.5	-0.006
C	-182.966	-5.14	-0.005
C	-182.058	-6.209	-0.005
C	-202.552	-9.81	-0.007
C	-201.757	-11.014	-0.007
C	-201.83	-8.628	-0.007
N	-202.224	-12.267	-0.007
N	-199.725	-12.163	-0.007
S	-200.931	-13.273	-0.007
H	-199.938	-7.599	-0.007
H	-202.389	-7.7	-0.007
C	-200.419	-8.57	-0.007
C	-200.294	-10.953	-0.007
C	-199.601	-9.688	-0.007
H	17.857	-0.739	-0.0
H	-203.634	-9.83	-0.007
