592
BDONBTFF_10
C	0.101	0.724	0.079
C	0.846	1.89	0.3
N	0.691	-0.478	-0.138
C	7.687	1.355	0.261
C	6.854	0.241	0.013
C	7.479	-0.984	-0.292
C	8.858	-0.979	-0.321
C	9.691	0.136	-0.075
C	9.066	1.36	0.232
O	6.963	2.494	0.543
C	5.626	2.183	0.487
C	5.478	0.719	0.14
O	9.582	-2.118	-0.602
C	10.92	-1.808	-0.544
C	11.067	-0.343	-0.2
O	11.745	-2.657	-0.766
O	4.801	3.033	0.71
C	12.296	0.271	-0.072
C	4.249	0.106	0.01
C	2.88	0.616	0.099
C	2.005	-0.486	-0.123
N	2.734	-1.646	-0.34
C	4.089	-1.384	-0.28
C	13.665	-0.24	-0.156
C	14.539	0.865	0.057
N	13.81	2.026	0.263
C	12.455	1.764	0.206
C	2.243	1.843	0.314
C	14.302	-1.469	-0.358
C	14.384	3.338	0.502
C	2.16	-2.955	-0.589
O	4.948	-2.239	-0.431
O	11.595	2.619	0.349
H	6.916	-1.882	-0.488
H	9.629	2.258	0.428
H	2.815	2.739	0.495
H	13.73	-2.367	-0.53
H	16.204	-2.46	-0.489
H	0.342	2.833	0.457
H	14.938	3.347	1.445
H	15.07	3.599	-0.309
H	13.561	4.052	0.546
H	2.983	-3.669	-0.64
H	1.474	-3.224	0.219
H	1.606	-2.957	-1.533
N	15.854	0.856	0.073
C	15.699	-1.515	-0.342
C	16.444	-0.348	-0.132
C	-4.347	0.665	0.093
C	-3.618	1.793	-0.427
C	-3.553	-0.352	0.575
N	-4.172	2.88	-0.971
N	-1.662	2.937	-0.98
S	-2.94	3.86	-1.442
F	-1.546	-1.385	1.13
F	-4.077	-1.443	1.139
C	-2.122	-0.32	0.57
C	-2.161	1.826	-0.433
C	-1.379	0.732	0.082
C	-22.103	-1.219	0.009
C	-21.307	-2.35	-0.217
N	-21.567	0.008	0.222
C	-14.498	-1.506	-0.228
C	-15.379	-0.431	0.026
C	-14.807	0.821	0.327
C	-13.429	0.878	0.346
C	-12.548	-0.198	0.093
C	-13.12	-1.449	-0.209
O	-15.172	-2.677	-0.505
C	-16.521	-2.427	-0.439
C	-16.733	-0.971	-0.091
O	-12.755	2.049	0.621
C	-11.406	1.799	0.553
C	-11.194	0.342	0.208
O	-10.618	2.686	0.769
O	-17.308	-3.313	-0.656
C	-9.941	-0.215	0.071
C	-17.987	-0.414	0.049
C	-19.332	-0.986	-0.031
C	-20.254	0.076	0.197
N	-19.577	1.267	0.41
C	-18.212	1.068	0.34
C	-8.595	0.357	0.145
C	-7.674	-0.707	-0.074
N	-8.351	-1.9	-0.276
C	-9.716	-1.699	-0.209
C	-19.914	-2.24	-0.242
C	-8.013	1.614	0.342
C	-7.72	-3.185	-0.518
C	-20.208	2.55	0.663
O	-17.391	1.96	0.484
O	-10.537	-2.592	-0.345
H	-15.409	1.692	0.527
H	-12.518	-2.32	-0.409
H	-19.304	-3.11	-0.427
H	-8.623	2.485	0.519
H	-6.157	2.69	0.46
H	-21.77	-3.315	-0.371
H	-7.173	-3.169	-1.466
H	-7.017	-3.414	0.287
H	-8.511	-3.935	-0.557
H	-19.417	3.3	0.708
H	-20.911	2.787	-0.14
H	-20.754	2.526	1.611
N	-6.361	-0.639	-0.1
C	-6.62	1.723	0.316
C	-5.824	0.59	0.101
C	-26.549	-1.361	0.029
C	-25.766	-2.455	0.543
C	-25.805	-0.309	-0.46
N	-26.266	-3.566	1.09
N	-23.756	-3.509	1.081
S	-24.988	-4.489	1.552
F	-23.851	0.814	-1.029
F	-26.382	0.756	-1.02
C	-24.375	-0.277	-0.465
C	-24.309	-2.422	0.538
C	-23.581	-1.294	0.018
C	-44.371	-0.282	0.243
C	-43.626	0.884	0.464
N	-43.781	-1.484	0.026
C	-36.785	0.349	0.424
C	-37.618	-0.765	0.177
C	-36.993	-1.99	-0.129
C	-35.614	-1.985	-0.158
C	-34.781	-0.87	0.089
C	-35.406	0.354	0.395
O	-37.509	1.488	0.706
C	-38.846	1.177	0.65
C	-38.994	-0.287	0.303
O	-34.89	-3.124	-0.438
C	-33.552	-2.814	-0.381
C	-33.405	-1.349	-0.037
O	-32.727	-3.663	-0.602
O	-39.671	2.027	0.873
C	-32.176	-0.735	0.092
C	-40.223	-0.9	0.173
C	-41.592	-0.39	0.262
C	-42.467	-1.492	0.041
N	-41.738	-2.652	-0.177
C	-40.383	-2.39	-0.117
C	-30.807	-1.246	0.008
C	-29.933	-0.141	0.22
N	-30.662	1.02	0.426
C	-32.017	0.758	0.37
C	-42.229	0.837	0.477
C	-30.17	-2.475	-0.194
C	-30.088	2.332	0.665
C	-42.312	-3.961	-0.426
O	-39.524	-3.245	-0.267
O	-32.877	1.613	0.512
H	-37.556	-2.888	-0.325
H	-34.843	1.252	0.591
H	-41.657	1.733	0.658
H	-30.742	-3.373	-0.367
H	-28.268	-3.466	-0.325
H	-44.13	1.827	0.621
H	-29.534	2.341	1.608
H	-29.402	2.593	-0.145
H	-30.911	3.046	0.709
H	-41.489	-4.675	-0.477
H	-42.998	-4.229	0.382
H	-42.866	-3.963	-1.37
N	-28.618	-0.15	0.236
C	-28.773	-2.521	-0.179
C	-28.028	-1.354	0.031
C	-48.819	-0.341	0.256
C	-48.09	0.787	-0.264
C	-48.025	-1.358	0.739
N	-48.644	1.874	-0.807
N	-46.134	1.931	-0.817
S	-47.412	2.854	-1.279
F	-46.018	-2.391	1.294
F	-48.549	-2.449	1.303
C	-46.594	-1.326	0.734
C	-46.633	0.82	-0.269
C	-45.851	-0.274	0.245
C	-66.575	-2.225	0.172
C	-65.779	-3.356	-0.054
N	-66.039	-0.998	0.385
C	-58.97	-2.512	-0.065
C	-59.851	-1.437	0.189
C	-59.279	-0.185	0.49
C	-57.901	-0.128	0.509
C	-57.02	-1.204	0.256
C	-57.592	-2.455	-0.046
O	-59.644	-3.683	-0.341
C	-60.993	-3.433	-0.276
C	-61.205	-1.977	0.072
O	-57.227	1.043	0.784
C	-55.878	0.793	0.717
C	-55.666	-0.664	0.371
O	-55.09	1.68	0.932
O	-61.78	-4.319	-0.493
C	-54.413	-1.221	0.234
C	-62.459	-1.42	0.212
C	-63.804	-1.992	0.133
C	-64.726	-0.93	0.361
N	-64.049	0.261	0.573
C	-62.684	0.062	0.503
C	-53.067	-0.649	0.308
C	-52.146	-1.713	0.089
N	-52.823	-2.906	-0.112
C	-54.188	-2.705	-0.046
C	-64.386	-3.246	-0.078
C	-52.485	0.608	0.505
C	-52.192	-4.19	-0.355
C	-64.68	1.544	0.826
O	-61.863	0.954	0.647
O	-55.009	-3.598	-0.182
H	-59.881	0.686	0.691
H	-56.99	-3.326	-0.246
H	-63.776	-4.116	-0.263
H	-53.095	1.479	0.682
H	-50.629	1.684	0.623
H	-66.242	-4.321	-0.208
H	-51.645	-4.175	-1.303
H	-51.489	-4.42	0.45
H	-52.983	-4.941	-0.394
H	-63.889	2.294	0.871
H	-65.383	1.781	0.024
H	-65.226	1.52	1.774
N	-50.833	-1.645	0.063
C	-51.092	0.717	0.48
C	-50.296	-0.416	0.264
C	-71.021	-2.367	0.192
C	-70.238	-3.461	0.706
C	-70.277	-1.315	-0.297
N	-70.738	-4.572	1.254
N	-68.228	-4.515	1.245
S	-69.46	-5.495	1.715
F	-68.323	-0.192	-0.866
F	-70.854	-0.25	-0.856
C	-68.847	-1.283	-0.302
C	-68.781	-3.428	0.701
C	-68.053	-2.3	0.181
C	-88.843	-1.287	0.406
C	-88.098	-0.122	0.627
N	-88.253	-2.49	0.189
C	-81.257	-0.657	0.587
C	-82.09	-1.771	0.34
C	-81.465	-2.996	0.034
C	-80.086	-2.991	0.005
C	-79.253	-1.876	0.252
C	-79.878	-0.652	0.558
O	-81.981	0.482	0.869
C	-83.318	0.171	0.813
C	-83.466	-1.293	0.467
O	-79.362	-4.13	-0.275
C	-78.024	-3.82	-0.217
C	-77.877	-2.355	0.127
O	-77.199	-4.669	-0.439
O	-84.143	1.021	1.036
C	-76.648	-1.741	0.255
C	-84.695	-1.906	0.336
C	-86.064	-1.396	0.425
C	-86.939	-2.498	0.204
N	-86.21	-3.658	-0.013
C	-84.855	-3.396	0.046
C	-75.279	-2.252	0.171
C	-74.405	-1.147	0.383
N	-75.134	0.014	0.59
C	-76.489	-0.248	0.533
C	-86.701	-0.169	0.641
C	-74.642	-3.481	-0.031
C	-74.56	1.326	0.828
C	-86.784	-4.967	-0.263
O	-83.996	-4.251	-0.104
O	-77.349	0.607	0.676
H	-82.028	-3.894	-0.162
H	-79.315	0.246	0.754
H	-86.129	0.727	0.822
H	-75.214	-4.379	-0.203
H	-72.74	-4.472	-0.162
H	-88.602	0.821	0.784
H	-74.006	1.335	1.772
H	-73.874	1.587	0.018
H	-75.383	2.04	0.873
H	-85.961	-5.681	-0.313
H	-87.47	-5.235	0.545
H	-87.338	-4.969	-1.206
N	-73.09	-1.156	0.4
C	-73.245	-3.527	-0.016
C	-72.5	-2.36	0.194
C	-93.291	-1.347	0.419
C	-92.562	-0.219	-0.101
C	-92.497	-2.364	0.902
N	-93.116	0.868	-0.644
N	-90.606	0.925	-0.654
S	-91.884	1.848	-1.115
F	-90.49	-3.397	1.457
F	-93.021	-3.455	1.466
C	-91.066	-2.332	0.897
C	-91.105	-0.186	-0.106
C	-90.323	-1.28	0.408
C	-111.047	-3.231	0.336
C	-110.251	-4.362	0.109
N	-110.511	-2.004	0.548
C	-103.442	-3.518	0.099
C	-104.323	-2.443	0.352
C	-103.751	-1.191	0.653
C	-102.373	-1.134	0.672
C	-101.492	-2.209	0.419
C	-102.064	-3.461	0.118
O	-104.116	-4.689	-0.178
C	-105.465	-4.439	-0.112
C	-105.677	-2.983	0.236
O	-101.699	0.037	0.947
C	-100.349	-0.213	0.88
C	-100.138	-1.67	0.535
O	-99.562	0.674	1.096
O	-106.252	-5.325	-0.33
C	-98.885	-2.227	0.397
C	-106.931	-2.426	0.375
C	-108.276	-2.998	0.296
C	-109.198	-1.936	0.524
N	-108.521	-0.745	0.736
C	-107.156	-0.944	0.667
C	-97.539	-1.655	0.471
C	-96.618	-2.719	0.252
N	-97.295	-3.912	0.051
C	-98.66	-3.711	0.118
C	-108.858	-4.252	0.085
C	-96.957	-0.398	0.669
C	-96.664	-5.196	-0.192
C	-109.152	0.538	0.99
O	-106.335	-0.052	0.811
O	-99.481	-4.604	-0.019
H	-104.353	-0.32	0.854
H	-101.462	-4.332	-0.083
H	-108.248	-5.122	-0.1
H	-97.567	0.473	0.845
H	-95.101	0.678	0.786
H	-110.714	-5.327	-0.044
H	-96.117	-5.181	-1.139
H	-95.961	-5.426	0.613
H	-97.454	-5.947	-0.23
H	-108.361	1.288	1.035
H	-109.855	0.775	0.187
H	-109.698	0.514	1.937
N	-95.305	-2.651	0.226
C	-95.564	-0.289	0.643
C	-94.768	-1.422	0.428
C	-115.493	-3.373	0.355
C	-114.71	-4.467	0.87
C	-114.749	-2.321	-0.133
N	-115.21	-5.578	1.417
N	-112.7	-5.521	1.408
S	-113.932	-6.501	1.879
F	-112.795	-1.198	-0.703
F	-115.326	-1.256	-0.693
C	-113.319	-2.289	-0.139
C	-113.253	-4.434	0.864
C	-112.525	-3.306	0.344
C	-133.315	-2.293	0.569
C	-132.57	-1.128	0.79
N	-132.725	-3.496	0.352
C	-125.729	-1.663	0.75
C	-126.562	-2.777	0.503
C	-125.937	-4.002	0.198
C	-124.558	-3.997	0.169
C	-123.725	-2.882	0.415
C	-124.35	-1.658	0.721
O	-126.453	-0.524	1.032
C	-127.79	-0.835	0.976
C	-127.938	-2.299	0.63
O	-123.834	-5.136	-0.112
C	-122.496	-4.826	-0.054
C	-122.349	-3.361	0.29
O	-121.671	-5.675	-0.276
O	-128.615	0.015	1.2
C	-121.12	-2.747	0.418
C	-129.167	-2.912	0.499
C	-130.536	-2.402	0.589
C	-131.411	-3.504	0.367
N	-130.682	-4.664	0.15
C	-129.327	-4.402	0.209
C	-119.751	-3.258	0.334
C	-118.877	-2.153	0.546
N	-119.606	-0.992	0.753
C	-120.961	-1.254	0.696
C	-131.173	-1.175	0.804
C	-119.114	-4.487	0.132
C	-119.032	0.32	0.991
C	-131.256	-5.973	-0.099
O	-128.468	-5.257	0.059
O	-121.821	-0.399	0.839
H	-126.5	-4.899	0.001
H	-123.787	-0.76	0.917
H	-130.601	-0.278	0.985
H	-119.686	-5.385	-0.04
H	-117.212	-5.478	0.001
H	-133.074	-0.185	0.947
H	-118.478	0.329	1.935
H	-118.346	0.581	0.181
H	-119.855	1.034	1.036
H	-130.433	-6.687	-0.15
H	-131.942	-6.241	0.709
H	-131.81	-5.975	-1.043
N	-117.562	-2.162	0.563
C	-117.717	-4.533	0.148
C	-116.972	-3.366	0.357
C	-137.763	-2.353	0.582
C	-137.034	-1.225	0.062
C	-136.969	-3.37	1.065
N	-137.588	-0.138	-0.481
N	-135.078	-0.081	-0.49
S	-136.356	0.842	-0.952
F	-134.962	-4.403	1.62
F	-137.493	-4.461	1.629
C	-135.538	-3.338	1.06
C	-135.577	-1.192	0.057
C	-134.795	-2.286	0.572
C	-155.519	-4.237	0.499
C	-154.723	-5.368	0.272
N	-154.983	-3.01	0.712
C	-147.914	-4.524	0.262
C	-148.795	-3.449	0.516
C	-148.223	-2.197	0.817
C	-146.845	-2.14	0.835
C	-145.964	-3.215	0.582
C	-146.536	-4.467	0.281
O	-148.588	-5.695	-0.015
C	-149.937	-5.445	0.051
C	-150.149	-3.989	0.399
O	-146.171	-0.969	1.111
C	-144.821	-1.219	1.043
C	-144.61	-2.676	0.698
O	-144.034	-0.332	1.259
O	-150.724	-6.331	-0.166
C	-143.357	-3.233	0.56
C	-151.403	-3.432	0.538
C	-152.748	-4.004	0.459
C	-153.67	-2.942	0.687
N	-152.993	-1.751	0.899
C	-151.628	-1.95	0.83
C	-142.011	-2.661	0.634
C	-141.09	-3.725	0.416
N	-141.767	-4.918	0.214
C	-143.132	-4.717	0.281
C	-153.33	-5.258	0.248
C	-141.429	-1.404	0.832
C	-141.136	-6.202	-0.029
C	-153.624	-0.468	1.153
O	-150.807	-1.058	0.974
O	-143.953	-5.61	0.144
H	-148.825	-1.326	1.017
H	-145.934	-5.338	0.081
H	-152.72	-6.128	0.063
H	-142.039	-0.533	1.009
H	-139.573	-0.328	0.949
H	-155.186	-6.333	0.119
H	-140.589	-6.187	-0.976
H	-140.433	-6.432	0.776
H	-141.926	-6.953	-0.067
H	-152.833	0.282	1.198
H	-154.327	-0.231	0.35
H	-154.17	-0.492	2.101
N	-139.777	-3.657	0.389
C	-140.036	-1.295	0.806
C	-139.24	-2.428	0.591
C	-159.965	-4.379	0.518
C	-159.182	-5.473	1.033
C	-159.221	-3.327	0.03
N	-159.682	-6.584	1.58
N	-157.172	-6.527	1.571
S	-158.404	-7.507	2.042
F	-157.267	-2.204	-0.54
F	-159.798	-2.262	-0.53
C	-157.791	-3.295	0.025
C	-157.725	-5.44	1.028
C	-156.997	-4.312	0.507
C	-177.787	-3.299	0.732
C	-177.042	-2.134	0.953
N	-177.197	-4.501	0.516
C	-170.201	-2.669	0.914
C	-171.034	-3.783	0.666
C	-170.409	-5.008	0.361
C	-169.03	-5.003	0.332
C	-168.197	-3.888	0.579
C	-168.822	-2.664	0.885
O	-170.925	-1.53	1.196
C	-172.262	-1.84	1.14
C	-172.41	-3.305	0.793
O	-168.306	-6.142	0.052
C	-166.968	-5.832	0.109
C	-166.82	-4.366	0.453
O	-166.143	-6.681	-0.112
O	-173.087	-0.991	1.363
C	-165.592	-3.753	0.581
C	-173.639	-3.918	0.663
C	-175.008	-3.407	0.752
C	-175.883	-4.51	0.53
N	-175.154	-5.67	0.313
C	-173.799	-5.408	0.373
C	-164.223	-4.264	0.497
C	-163.349	-3.159	0.71
N	-164.078	-1.998	0.916
C	-165.433	-2.26	0.859
C	-175.645	-2.181	0.967
C	-163.586	-5.493	0.295
C	-163.504	-0.686	1.155
C	-175.728	-6.979	0.064
O	-172.939	-6.263	0.222
O	-166.293	-1.405	1.002
H	-170.972	-5.905	0.165
H	-168.259	-1.766	1.081
H	-175.073	-1.284	1.148
H	-164.158	-6.391	0.123
H	-161.684	-6.484	0.164
H	-177.546	-1.191	1.11
H	-162.95	-0.677	2.098
H	-162.818	-0.425	0.344
H	-164.327	0.028	1.199
H	-174.905	-7.693	0.013
H	-176.414	-7.247	0.872
H	-176.282	-6.981	-0.88
N	-162.034	-3.168	0.726
C	-162.189	-5.539	0.311
C	-161.444	-4.371	0.521
C	-182.235	-3.359	0.746
C	-181.506	-2.231	0.226
C	-181.441	-4.376	1.228
N	-182.06	-1.144	-0.318
N	-179.55	-1.087	-0.327
S	-180.828	-0.164	-0.789
F	-179.434	-5.409	1.783
F	-181.965	-5.467	1.792
C	-180.01	-4.344	1.223
C	-180.049	-2.198	0.22
C	-179.267	-3.292	0.735
C	-199.991	-5.243	0.662
C	-199.195	-6.374	0.436
N	-199.455	-4.016	0.875
C	-192.386	-5.53	0.425
C	-193.267	-4.455	0.679
C	-192.695	-3.203	0.98
C	-191.317	-3.146	0.999
C	-190.436	-4.221	0.746
C	-191.008	-5.473	0.444
O	-193.059	-6.701	0.148
C	-194.409	-6.451	0.214
C	-194.621	-4.995	0.562
O	-190.643	-1.975	1.274
C	-189.293	-2.225	1.207
C	-189.082	-3.682	0.861
O	-188.506	-1.338	1.422
O	-195.196	-7.337	-0.003
C	-187.829	-4.239	0.724
C	-195.875	-4.438	0.702
C	-197.22	-5.01	0.622
C	-198.142	-3.948	0.85
N	-197.465	-2.757	1.063
C	-196.1	-2.956	0.993
C	-186.483	-3.667	0.798
C	-185.562	-4.731	0.579
N	-186.239	-5.924	0.378
C	-187.604	-5.723	0.444
C	-197.802	-6.264	0.412
C	-185.901	-2.41	0.995
C	-185.608	-7.208	0.135
C	-198.096	-1.474	1.316
O	-195.279	-2.064	1.137
O	-188.425	-6.616	0.308
H	-193.297	-2.332	1.18
H	-190.406	-6.344	0.244
H	-197.192	-7.134	0.226
H	-186.511	-1.539	1.172
H	-184.045	-1.334	1.113
H	-199.658	-7.339	0.282
H	-185.061	-7.193	-0.813
H	-184.905	-7.438	0.94
H	-186.398	-7.959	0.096
H	-197.305	-0.724	1.361
H	-198.799	-1.237	0.513
H	-198.642	-1.498	2.264
N	-184.249	-4.663	0.553
C	-184.508	-2.301	0.97
C	-183.712	-3.433	0.754
C	-204.437	-5.385	0.682
C	-203.654	-6.479	1.196
C	-203.693	-4.333	0.193
N	-204.154	-7.59	1.743
N	-201.644	-7.533	1.734
S	-202.876	-8.512	2.205
F	-201.739	-3.21	-0.376
F	-204.27	-3.268	-0.367
C	-202.263	-4.301	0.188
C	-202.197	-6.446	1.191
C	-201.469	-5.318	0.671
H	17.524	-0.408	-0.134
H	-205.519	-5.389	0.679
