592
BDONBTF_10
C	0.25	0.924	0.052
C	1.014	2.035	0.435
N	0.824	-0.258	-0.29
C	7.84	1.342	0.533
C	6.992	0.286	0.128
C	7.602	-0.907	-0.307
C	8.98	-0.932	-0.296
C	9.829	0.122	0.111
C	9.219	1.316	0.545
O	7.132	2.456	0.931
C	5.79	2.186	0.8
C	5.623	0.779	0.274
O	9.688	-2.044	-0.698
C	11.03	-1.773	-0.574
C	11.198	-0.366	-0.048
O	11.843	-2.61	-0.873
O	4.977	3.023	1.102
C	12.436	0.199	0.182
C	4.386	0.217	0.034
C	3.027	0.746	0.143
C	2.137	-0.3	-0.236
N	2.848	-1.443	-0.57
C	4.205	-1.224	-0.438
C	13.797	-0.311	0.017
C	14.689	0.728	0.416
N	13.975	1.847	0.817
C	12.616	1.619	0.71
C	2.408	1.953	0.486
C	14.42	-1.488	-0.406
C	14.56	3.089	1.285
C	2.255	-2.698	-0.994
O	5.051	-2.075	-0.664
O	11.77	2.449	1.002
H	7.026	-1.759	-0.629
H	9.794	2.168	0.869
H	2.992	2.807	0.793
H	13.837	-2.337	-0.729
H	16.307	-2.464	-0.733
H	0.525	2.965	0.691
H	15.195	3.527	0.509
H	15.168	2.91	2.177
H	13.74	3.767	1.523
H	1.534	-3.042	-0.247
H	3.064	-3.421	-1.103
H	1.735	-2.572	-1.949
N	16.0	0.694	0.426
C	15.817	-1.557	-0.407
C	16.586	-0.463	0.009
C	-4.186	0.971	-0.083
C	-3.428	2.142	-0.453
C	-3.435	-0.12	0.307
N	-3.923	3.31	-0.874
N	-1.419	3.286	-0.783
S	-2.648	4.299	-1.173
F	-1.466	-1.253	0.787
H	-3.94	-1.029	0.606
C	-2.021	-0.114	0.346
C	-1.968	2.13	-0.398
C	-1.226	0.966	0.009
C	-21.967	-0.464	-1.159
C	-21.184	-1.578	-1.493
N	-21.412	0.715	-0.781
C	-14.363	-0.907	-1.164
C	-15.232	0.151	-0.813
C	-14.647	1.342	-0.34
C	-13.27	1.364	-0.265
C	-12.401	0.306	-0.617
C	-12.986	-0.885	-1.089
O	-15.049	-2.018	-1.605
C	-16.395	-1.745	-1.558
C	-16.59	-0.337	-1.044
O	-12.585	2.474	0.181
C	-11.239	2.198	0.142
C	-11.043	0.79	-0.373
O	-10.443	3.033	0.491
O	-17.19	-2.578	-1.911
C	-9.795	0.222	-0.525
C	-17.838	0.229	-0.882
C	-19.189	-0.295	-1.076
C	-20.098	0.754	-0.753
N	-19.405	1.894	-0.375
C	-18.043	1.671	-0.421
C	-8.445	0.727	-0.275
C	-7.533	-0.315	-0.618
N	-8.224	-1.432	-1.063
C	-9.587	-1.199	-1.041
C	-19.789	-1.5	-1.457
C	-7.846	1.902	0.186
C	-7.615	-2.676	-1.494
C	-20.02	3.151	0.011
O	-17.21	2.519	-0.143
O	-10.416	-2.027	-1.385
H	-15.239	2.197	-0.055
H	-12.394	-1.739	-1.377
H	-19.19	-2.356	-1.726
H	-8.445	2.753	0.472
H	-5.98	2.872	0.631
H	-21.66	-2.506	-1.779
H	-7.031	-3.116	-0.68
H	-6.952	-2.499	-2.346
H	-8.421	-3.351	-1.782
H	-20.691	3.498	-0.779
H	-19.217	3.872	0.17
H	-20.599	3.027	0.931
N	-6.224	-0.285	-0.545
C	-6.451	1.967	0.275
C	-5.662	0.869	-0.093
C	-26.403	-0.497	-1.302
C	-25.674	-1.671	-0.886
C	-25.625	0.591	-1.644
N	-26.197	-2.837	-0.497
N	-23.692	-2.821	-0.43
S	-24.947	-3.83	-0.118
F	-23.627	1.718	-1.999
H	-26.108	1.502	-1.974
C	-24.212	0.581	-1.594
C	-24.213	-1.664	-0.849
C	-23.443	-0.502	-1.209
C	-44.214	0.868	-1.261
C	-43.45	1.979	-0.878
N	-43.641	-0.313	-1.603
C	-36.624	1.286	-0.78
C	-37.473	0.231	-1.184
C	-36.863	-0.962	-1.62
C	-35.484	-0.988	-1.609
C	-34.635	0.067	-1.202
C	-35.246	1.26	-0.768
O	-37.333	2.4	-0.382
C	-38.674	2.13	-0.513
C	-38.842	0.723	-1.039
O	-34.776	-2.1	-2.011
C	-33.435	-1.829	-1.887
C	-33.266	-0.421	-1.361
O	-32.622	-2.666	-2.186
O	-39.487	2.967	-0.211
C	-32.029	0.143	-1.131
C	-40.078	0.161	-1.279
C	-41.438	0.69	-1.17
C	-42.328	-0.356	-1.549
N	-41.616	-1.499	-1.883
C	-40.259	-1.28	-1.751
C	-30.668	-0.367	-1.296
C	-29.776	0.672	-0.897
N	-30.489	1.791	-0.496
C	-31.849	1.563	-0.603
C	-42.056	1.897	-0.827
C	-30.045	-1.544	-1.719
C	-29.904	3.033	-0.028
C	-42.209	-2.754	-2.307
O	-39.413	-2.131	-1.977
O	-32.695	2.394	-0.311
H	-37.439	-1.815	-1.942
H	-34.67	2.112	-0.444
H	-41.473	2.751	-0.52
H	-30.627	-2.393	-2.042
H	-28.158	-2.52	-2.046
H	-43.94	2.909	-0.622
H	-29.269	3.471	-0.804
H	-29.296	2.855	0.864
H	-30.725	3.711	0.21
H	-42.93	-3.098	-1.56
H	-41.401	-3.477	-2.416
H	-42.729	-2.628	-3.262
N	-28.464	0.638	-0.887
C	-28.647	-1.613	-1.72
C	-27.879	-0.518	-1.304
C	-48.65	0.915	-1.396
C	-47.893	2.086	-1.766
C	-47.899	-0.175	-1.006
N	-48.387	3.254	-2.187
N	-45.883	3.23	-2.096
S	-47.113	4.243	-2.486
F	-45.931	-1.309	-0.526
H	-48.405	-1.085	-0.707
C	-46.486	-0.17	-0.967
C	-46.433	2.075	-1.711
C	-45.691	0.91	-1.304
C	-66.431	-0.52	-2.472
C	-65.648	-1.634	-2.806
N	-65.876	0.66	-2.094
C	-58.827	-0.962	-2.477
C	-59.696	0.096	-2.126
C	-59.111	1.287	-1.653
C	-57.734	1.308	-1.578
C	-56.865	0.251	-1.93
C	-57.451	-0.941	-2.402
O	-59.513	-2.074	-2.918
C	-60.859	-1.8	-2.871
C	-61.055	-0.392	-2.357
O	-57.049	2.418	-1.132
C	-55.703	2.142	-1.171
C	-55.507	0.734	-1.686
O	-54.908	2.977	-0.822
O	-61.655	-2.634	-3.224
C	-54.259	0.166	-1.838
C	-62.302	0.173	-2.195
C	-63.654	-0.351	-2.389
C	-64.563	0.698	-2.066
N	-63.87	1.838	-1.688
C	-62.508	1.615	-1.734
C	-52.91	0.671	-1.588
C	-51.998	-0.371	-1.931
N	-52.689	-1.488	-2.376
C	-54.051	-1.255	-2.354
C	-64.254	-1.556	-2.77
C	-52.31	1.847	-1.127
C	-52.079	-2.732	-2.807
C	-64.484	3.095	-1.302
O	-61.675	2.464	-1.456
O	-54.88	-2.083	-2.698
H	-59.703	2.141	-1.368
H	-56.859	-1.795	-2.69
H	-63.655	-2.412	-3.039
H	-52.909	2.697	-0.841
H	-50.444	2.816	-0.682
H	-66.124	-2.562	-3.092
H	-51.496	-3.171	-1.993
H	-51.416	-2.555	-3.659
H	-52.886	-3.407	-3.095
H	-65.156	3.442	-2.092
H	-63.682	3.816	-1.143
H	-65.063	2.971	-0.382
N	-50.688	-0.341	-1.858
C	-50.916	1.911	-1.038
C	-50.126	0.814	-1.406
C	-70.867	-0.553	-2.615
C	-70.138	-1.726	-2.198
C	-70.09	0.535	-2.957
N	-70.662	-2.892	-1.81
N	-68.157	-2.876	-1.743
S	-69.412	-3.886	-1.431
F	-68.091	1.662	-3.312
H	-70.573	1.446	-3.287
C	-68.676	0.525	-2.907
C	-68.678	-1.719	-2.162
C	-67.908	-0.558	-2.522
C	-88.679	0.812	-2.574
C	-87.914	1.923	-2.191
N	-88.105	-0.369	-2.916
C	-81.088	1.23	-2.093
C	-81.937	0.175	-2.497
C	-81.327	-1.018	-2.933
C	-79.949	-1.044	-2.922
C	-79.1	0.011	-2.515
C	-79.71	1.204	-2.081
O	-81.797	2.344	-1.695
C	-83.139	2.075	-1.826
C	-83.306	0.667	-2.352
O	-79.241	-2.156	-3.324
C	-77.899	-1.884	-3.2
C	-77.731	-0.477	-2.674
O	-77.086	-2.722	-3.499
O	-83.952	2.911	-1.524
C	-76.493	0.087	-2.444
C	-84.543	0.106	-2.592
C	-85.902	0.634	-2.483
C	-86.792	-0.411	-2.862
N	-86.081	-1.554	-3.196
C	-84.724	-1.336	-3.064
C	-75.132	-0.423	-2.609
C	-74.24	0.616	-2.21
N	-74.954	1.735	-1.809
C	-76.313	1.508	-1.916
C	-86.521	1.842	-2.14
C	-74.509	-1.6	-3.032
C	-74.369	2.977	-1.341
C	-86.674	-2.809	-3.62
O	-83.878	-2.187	-3.29
O	-77.159	2.338	-1.624
H	-81.903	-1.871	-3.255
H	-79.135	2.056	-1.756
H	-85.937	2.695	-1.833
H	-75.091	-2.448	-3.355
H	-72.622	-2.576	-3.359
H	-88.404	2.853	-1.935
H	-73.734	3.415	-2.117
H	-73.761	2.799	-0.449
H	-75.189	3.655	-1.103
H	-87.394	-3.154	-2.873
H	-85.865	-3.533	-3.729
H	-87.194	-2.684	-4.575
N	-72.929	0.582	-2.2
C	-73.112	-1.669	-3.033
C	-72.343	-0.574	-2.617
C	-93.115	0.859	-2.709
C	-92.357	2.031	-3.079
C	-92.363	-0.231	-2.319
N	-92.852	3.198	-3.499
N	-90.347	3.174	-3.409
S	-91.577	4.188	-3.799
F	-90.395	-1.365	-1.839
H	-92.869	-1.141	-2.02
C	-90.95	-0.226	-2.28
C	-90.897	2.019	-3.024
C	-90.155	0.855	-2.617
C	-110.896	-0.576	-3.785
C	-110.113	-1.689	-4.119
N	-110.341	0.604	-3.407
C	-103.292	-1.018	-3.79
C	-104.16	0.04	-3.439
C	-103.575	1.231	-2.966
C	-102.199	1.252	-2.891
C	-101.33	0.195	-3.243
C	-101.915	-0.997	-3.715
O	-103.977	-2.13	-4.231
C	-105.324	-1.856	-4.184
C	-105.519	-0.448	-3.67
O	-101.514	2.362	-2.445
C	-100.168	2.086	-2.484
C	-99.972	0.678	-2.999
O	-99.372	2.921	-2.135
O	-106.119	-2.69	-4.537
C	-98.724	0.11	-3.151
C	-106.767	0.118	-3.508
C	-108.118	-0.407	-3.702
C	-109.027	0.642	-3.379
N	-108.334	1.783	-3.001
C	-106.972	1.559	-3.047
C	-97.374	0.616	-2.901
C	-96.462	-0.426	-3.244
N	-97.153	-1.543	-3.689
C	-98.516	-1.311	-3.667
C	-108.718	-1.612	-4.083
C	-96.775	1.791	-2.44
C	-96.544	-2.787	-4.12
C	-108.949	3.04	-2.615
O	-106.139	2.408	-2.769
O	-99.344	-2.139	-4.011
H	-104.167	2.086	-2.681
H	-101.323	-1.851	-4.003
H	-108.119	-2.468	-4.352
H	-97.374	2.641	-2.154
H	-94.909	2.76	-1.995
H	-110.588	-2.618	-4.405
H	-95.96	-3.227	-3.306
H	-95.881	-2.611	-4.972
H	-97.35	-3.462	-4.408
H	-109.62	3.386	-3.405
H	-108.146	3.76	-2.456
H	-109.528	2.916	-1.695
N	-95.152	-0.397	-3.171
C	-95.38	1.855	-2.351
C	-94.591	0.758	-2.719
C	-115.332	-0.609	-3.928
C	-114.603	-1.782	-3.511
C	-114.554	0.48	-4.27
N	-115.126	-2.948	-3.123
N	-112.621	-2.932	-3.056
S	-113.876	-3.942	-2.744
F	-112.556	1.607	-4.625
H	-115.037	1.391	-4.6
C	-113.141	0.469	-4.22
C	-113.142	-1.775	-3.475
C	-112.372	-0.613	-3.835
C	-133.143	0.756	-3.887
C	-132.379	1.868	-3.504
N	-132.569	-0.425	-4.229
C	-125.553	1.174	-3.406
C	-126.401	0.119	-3.81
C	-125.792	-1.074	-4.246
C	-124.413	-1.099	-4.235
C	-123.564	-0.045	-3.828
C	-124.174	1.149	-3.394
O	-126.261	2.288	-3.008
C	-127.603	2.019	-3.139
C	-127.77	0.612	-3.665
O	-123.705	-2.212	-4.637
C	-122.363	-1.94	-4.513
C	-122.195	-0.533	-3.987
O	-121.55	-2.778	-4.812
O	-128.416	2.855	-2.837
C	-120.958	0.031	-3.757
C	-129.007	0.05	-3.905
C	-130.367	0.578	-3.796
C	-131.257	-0.467	-4.175
N	-130.545	-1.61	-4.509
C	-129.188	-1.391	-4.377
C	-119.597	-0.479	-3.922
C	-118.704	0.56	-3.523
N	-119.418	1.68	-3.122
C	-120.778	1.452	-3.229
C	-130.985	1.786	-3.453
C	-118.973	-1.656	-4.345
C	-118.833	2.922	-2.653
C	-131.138	-2.865	-4.933
O	-128.342	-2.243	-4.603
O	-121.624	2.282	-2.937
H	-126.367	-1.927	-4.568
H	-123.599	2.001	-3.069
H	-130.401	2.639	-3.146
H	-119.556	-2.504	-4.668
H	-117.086	-2.631	-4.672
H	-132.869	2.797	-3.248
H	-118.198	3.36	-3.429
H	-118.225	2.743	-1.762
H	-119.654	3.599	-2.416
H	-131.859	-3.209	-4.186
H	-130.33	-3.589	-5.042
H	-131.658	-2.74	-5.888
N	-117.393	0.526	-3.513
C	-117.576	-1.725	-4.346
C	-116.808	-0.63	-3.93
C	-137.579	0.804	-4.022
C	-136.822	1.975	-4.392
C	-136.828	-0.287	-3.632
N	-137.316	3.142	-4.812
N	-134.812	3.119	-4.722
S	-136.042	4.132	-5.112
F	-134.86	-1.42	-3.152
H	-137.334	-1.196	-3.333
C	-135.414	-0.281	-3.593
C	-135.362	1.963	-4.337
C	-134.62	0.799	-3.93
C	-155.36	-0.631	-5.098
C	-154.577	-1.745	-5.432
N	-154.805	0.548	-4.72
C	-147.756	-1.074	-5.103
C	-148.625	-0.016	-4.752
C	-148.04	1.175	-4.279
C	-146.663	1.196	-4.204
C	-145.794	0.139	-4.556
C	-146.379	-1.053	-5.028
O	-148.442	-2.186	-5.544
C	-149.788	-1.912	-5.497
C	-149.984	-0.504	-4.983
O	-145.978	2.306	-3.758
C	-144.632	2.03	-3.797
C	-144.436	0.622	-4.312
O	-143.837	2.865	-3.448
O	-150.584	-2.746	-5.85
C	-143.188	0.054	-4.464
C	-151.231	0.062	-4.821
C	-152.583	-0.463	-5.015
C	-153.491	0.586	-4.692
N	-152.799	1.727	-4.314
C	-151.437	1.504	-4.36
C	-141.838	0.56	-4.214
C	-140.926	-0.482	-4.557
N	-141.617	-1.599	-5.002
C	-142.98	-1.367	-4.98
C	-153.183	-1.668	-5.396
C	-141.239	1.735	-3.753
C	-141.008	-2.843	-5.433
C	-153.413	2.984	-3.928
O	-150.604	2.352	-4.082
O	-143.809	-2.194	-5.324
H	-148.632	2.03	-3.994
H	-145.788	-1.907	-5.316
H	-152.583	-2.523	-5.665
H	-141.838	2.585	-3.467
H	-139.373	2.705	-3.308
H	-155.053	-2.673	-5.718
H	-140.424	-3.283	-4.619
H	-140.345	-2.667	-6.285
H	-141.814	-3.518	-5.721
H	-154.084	3.33	-4.718
H	-152.61	3.704	-3.769
H	-153.992	2.86	-3.008
N	-139.617	-0.452	-4.484
C	-139.844	1.799	-3.664
C	-139.055	0.702	-4.032
C	-159.796	-0.664	-5.241
C	-159.067	-1.838	-4.824
C	-159.018	0.424	-5.583
N	-159.59	-3.004	-4.436
N	-157.086	-2.988	-4.369
S	-158.341	-3.997	-4.057
F	-157.02	1.551	-5.938
H	-159.501	1.335	-5.913
C	-157.605	0.414	-5.533
C	-157.606	-1.831	-4.788
C	-156.837	-0.669	-5.148
C	-177.607	0.701	-5.2
C	-176.843	1.812	-4.817
N	-177.034	-0.481	-5.542
C	-170.017	1.119	-4.719
C	-170.866	0.063	-5.123
C	-170.256	-1.13	-5.559
C	-168.877	-1.155	-5.548
C	-168.029	-0.101	-5.141
C	-168.639	1.093	-4.707
O	-170.726	2.232	-4.321
C	-172.067	1.963	-4.452
C	-172.235	0.556	-4.978
O	-168.169	-2.268	-5.95
C	-166.828	-1.996	-5.826
C	-166.66	-0.589	-5.3
O	-166.015	-2.834	-6.125
O	-172.881	2.799	-4.15
C	-165.422	-0.024	-5.07
C	-173.471	-0.006	-5.218
C	-174.831	0.523	-5.109
C	-175.721	-0.523	-5.488
N	-175.01	-1.666	-5.822
C	-173.652	-1.447	-5.69
C	-164.061	-0.534	-5.235
C	-163.169	0.505	-4.836
N	-163.883	1.624	-4.435
C	-165.242	1.396	-4.542
C	-175.45	1.73	-4.766
C	-163.438	-1.712	-5.658
C	-163.298	2.866	-3.966
C	-175.603	-2.921	-6.246
O	-172.806	-2.298	-5.916
O	-166.088	2.226	-4.25
H	-170.832	-1.983	-5.881
H	-168.063	1.945	-4.382
H	-174.866	2.584	-4.459
H	-164.02	-2.56	-5.981
H	-161.551	-2.687	-5.985
H	-177.333	2.742	-4.561
H	-162.663	3.304	-4.742
H	-162.69	2.687	-3.074
H	-164.118	3.544	-3.729
H	-176.323	-3.265	-5.499
H	-174.794	-3.644	-6.355
H	-176.123	-2.795	-7.2
N	-161.857	0.47	-4.826
C	-162.04	-1.781	-5.659
C	-161.272	-0.686	-5.243
C	-182.044	0.748	-5.335
C	-181.286	1.919	-5.705
C	-181.292	-0.343	-4.945
N	-181.78	3.087	-6.125
N	-179.276	3.063	-6.035
S	-180.506	4.076	-6.425
F	-179.324	-1.476	-4.465
H	-181.798	-1.252	-4.646
C	-179.879	-0.337	-4.906
C	-179.826	1.907	-5.65
C	-179.084	0.743	-5.242
C	-199.824	-0.687	-6.411
C	-199.041	-1.801	-6.745
N	-199.27	0.492	-6.033
C	-192.22	-1.13	-6.416
C	-193.089	-0.072	-6.065
C	-192.504	1.119	-5.592
C	-191.127	1.14	-5.517
C	-190.258	0.083	-5.869
C	-190.844	-1.108	-6.341
O	-192.906	-2.241	-6.857
C	-194.253	-1.968	-6.81
C	-194.448	-0.56	-6.296
O	-190.442	2.251	-5.071
C	-189.097	1.975	-5.11
C	-188.9	0.567	-5.625
O	-188.301	2.81	-4.761
O	-195.048	-2.801	-7.163
C	-187.653	-0.002	-5.777
C	-195.695	0.006	-6.134
C	-197.047	-0.518	-6.328
C	-197.956	0.53	-6.005
N	-197.263	1.671	-5.627
C	-195.901	1.448	-5.673
C	-186.303	0.504	-5.527
C	-185.391	-0.538	-5.87
N	-186.082	-1.655	-6.315
C	-187.444	-1.423	-6.293
C	-197.647	-1.724	-6.709
C	-185.704	1.679	-5.066
C	-185.473	-2.899	-6.746
C	-197.877	2.928	-5.241
O	-195.068	2.296	-5.395
O	-188.273	-2.25	-6.637
H	-193.096	1.974	-5.307
H	-190.252	-1.962	-6.629
H	-197.048	-2.579	-6.978
H	-186.302	2.529	-4.78
H	-183.838	2.649	-4.621
H	-199.517	-2.729	-7.031
H	-184.889	-3.339	-5.932
H	-184.809	-2.722	-7.598
H	-186.279	-3.574	-7.034
H	-198.549	3.274	-6.031
H	-197.075	3.649	-5.081
H	-198.457	2.804	-4.321
N	-184.081	-0.508	-5.797
C	-184.309	1.744	-4.977
C	-183.519	0.646	-5.345
C	-204.26	-0.72	-6.553
C	-203.531	-1.894	-6.137
C	-203.483	0.368	-6.896
N	-204.055	-3.06	-5.749
N	-201.55	-3.044	-5.682
S	-202.805	-4.053	-5.37
F	-201.485	1.495	-7.251
H	-203.966	1.279	-7.226
C	-202.07	0.358	-6.846
C	-202.071	-1.887	-6.101
C	-201.301	-0.725	-6.461
H	17.665	-0.538	-0.0
H	-205.342	-0.695	-6.594
