462
BN_DPP-b12_2_8x2_BN_BTT_10
C	-4.778	-0.508	-0.157
C	-5.368	0.703	-0.585
C	-5.659	-1.476	0.37
H	-5.281	-2.404	0.784
H	-4.742	1.514	-0.941
H	-7.191	1.792	-0.843
C	-6.739	0.862	-0.514
N	-6.977	-1.33	0.442
C	-7.534	-0.185	-0.007
C	-0.102	0.724	-0.225
C	-1.068	-0.28	-0.261
N	-0.771	1.944	-0.236
C	-2.191	1.759	-0.278
C	-1.243	-1.721	-0.236
O	-0.462	-2.668	-0.264
O	-2.987	2.69	-0.336
C	-3.207	-3.241	-0.366
C	-0.231	3.299	-0.263
H	0.42	3.445	-1.127
H	-1.096	3.961	-0.327
H	0.343	3.511	0.64
H	-3.549	-3.663	0.585
H	-4.033	-3.239	-1.081
H	-2.394	-3.865	-0.74
N	-2.664	-1.9	-0.205
C	-2.359	0.316	-0.277
C	-3.333	-0.675	-0.222
C	4.116	0.339	-0.051
C	3.316	-0.815	-0.156
C	3.423	1.568	-0.013
H	3.98	2.502	0.052
H	3.774	-1.799	-0.165
H	1.316	-1.594	-0.298
C	1.937	-0.706	-0.224
N	2.104	1.691	-0.065
C	1.35	0.576	-0.171
C	10.176	-0.027	0.151
C	9.383	1.03	0.545
S	9.233	-1.386	-0.468
C	8.009	0.752	0.352
C	7.753	-0.51	-0.184
H	5.991	-1.702	-0.808
H	9.771	1.957	0.95
S	6.526	1.625	0.632
C	6.377	-0.785	-0.379
C	5.57	0.266	0.008
C	14.388	-0.481	0.03
C	13.798	0.73	-0.398
C	13.507	-1.448	0.557
H	13.885	-2.377	0.971
H	14.424	1.541	-0.754
H	11.975	1.819	-0.656
C	12.427	0.89	-0.327
N	12.189	-1.302	0.629
C	11.632	-0.158	0.18
C	19.064	0.752	-0.038
C	18.098	-0.253	-0.074
N	18.395	1.971	-0.049
C	16.975	1.786	-0.092
C	17.923	-1.693	-0.049
O	18.704	-2.641	-0.077
O	16.179	2.718	-0.149
C	15.959	-3.213	-0.179
C	18.935	3.326	-0.076
H	19.586	3.472	-0.94
H	18.07	3.989	-0.14
H	19.509	3.539	0.827
H	15.617	-3.635	0.772
H	15.133	-3.212	-0.894
H	16.772	-3.838	-0.553
N	16.502	-1.873	-0.018
C	16.807	0.344	-0.09
C	15.833	-0.647	-0.035
C	23.282	0.367	0.136
C	22.482	-0.787	0.031
C	22.589	1.595	0.174
H	23.146	2.53	0.239
H	22.94	-1.771	0.022
H	20.482	-1.566	-0.111
C	21.103	-0.679	-0.037
N	21.27	1.718	0.122
C	20.516	0.603	0.016
C	29.342	0.0	0.338
C	28.549	1.057	0.732
S	28.399	-1.359	-0.281
C	27.175	0.78	0.539
C	26.919	-0.482	0.003
H	25.157	-1.674	-0.621
H	28.937	1.984	1.137
S	25.692	1.653	0.819
C	25.543	-0.757	-0.192
C	24.736	0.294	0.195
C	33.554	-0.453	0.217
C	32.964	0.758	-0.211
C	32.673	-1.421	0.744
H	33.051	-2.349	1.158
H	33.59	1.569	-0.567
H	31.141	1.847	-0.469
C	31.593	0.917	-0.14
N	31.355	-1.275	0.816
C	30.798	-0.13	0.367
C	38.23	0.779	0.149
C	37.264	-0.225	0.113
N	37.561	1.999	0.138
C	36.141	1.814	0.095
C	37.089	-1.665	0.138
O	37.87	-2.613	0.11
O	35.345	2.746	0.038
C	35.125	-3.186	0.008
C	38.101	3.354	0.111
H	38.752	3.5	-0.753
H	37.236	4.016	0.047
H	38.675	3.566	1.014
H	34.783	-3.608	0.959
H	34.299	-3.184	-0.707
H	35.938	-3.81	-0.366
N	35.668	-1.845	0.169
C	35.973	0.371	0.097
C	34.999	-0.62	0.152
C	42.448	0.394	0.323
C	41.648	-0.76	0.218
C	41.755	1.623	0.361
H	42.312	2.557	0.426
H	42.106	-1.744	0.209
H	39.648	-1.539	0.076
C	40.269	-0.651	0.15
N	40.436	1.746	0.309
C	39.682	0.631	0.203
C	48.508	0.028	0.525
C	47.715	1.085	0.919
S	47.565	-1.331	-0.094
C	46.341	0.807	0.726
C	46.085	-0.455	0.19
H	44.323	-1.647	-0.434
H	48.103	2.012	1.324
S	44.858	1.68	1.006
C	44.709	-0.73	-0.005
C	43.902	0.322	0.382
C	52.72	-0.426	0.404
C	52.13	0.785	-0.024
C	51.839	-1.393	0.931
H	52.217	-2.322	1.345
H	52.756	1.597	-0.38
H	50.307	1.874	-0.282
C	50.759	0.945	0.047
N	50.521	-1.247	1.003
C	49.964	-0.102	0.554
C	57.396	0.807	0.336
C	56.43	-0.198	0.3
N	56.727	2.026	0.325
C	55.307	1.841	0.282
C	56.255	-1.638	0.325
O	57.036	-2.586	0.297
O	54.511	2.773	0.225
C	54.291	-3.158	0.195
C	57.267	3.381	0.298
H	57.918	3.527	-0.566
H	56.402	4.044	0.234
H	57.841	3.594	1.201
H	53.949	-3.58	1.146
H	53.465	-3.157	-0.52
H	55.104	-3.783	-0.179
N	54.834	-1.818	0.356
C	55.139	0.399	0.284
C	54.165	-0.592	0.339
C	61.614	0.422	0.51
C	60.814	-0.732	0.405
C	60.921	1.65	0.548
H	61.478	2.585	0.613
H	61.272	-1.716	0.396
H	58.814	-1.511	0.263
C	59.435	-0.623	0.337
N	59.602	1.773	0.496
C	58.848	0.658	0.39
C	67.674	0.055	0.712
C	66.881	1.113	1.106
S	66.731	-1.304	0.093
C	65.507	0.835	0.913
C	65.251	-0.427	0.377
H	63.489	-1.619	-0.247
H	67.269	2.039	1.511
S	64.024	1.708	1.193
C	63.875	-0.702	0.182
C	63.068	0.349	0.569
C	71.886	-0.398	0.591
C	71.296	0.813	0.163
C	71.005	-1.366	1.118
H	71.383	-2.294	1.532
H	71.922	1.624	-0.193
H	69.473	1.902	-0.095
C	69.925	0.972	0.234
N	69.687	-1.219	1.19
C	69.13	-0.075	0.741
C	76.562	0.834	0.523
C	75.596	-0.17	0.487
N	75.893	2.054	0.512
C	74.473	1.869	0.469
C	75.421	-1.61	0.512
O	76.202	-2.558	0.484
O	73.677	2.801	0.412
C	73.457	-3.13	0.382
C	76.433	3.409	0.485
H	77.084	3.555	-0.379
H	75.568	4.071	0.421
H	77.007	3.622	1.388
H	73.115	-3.553	1.333
H	72.631	-3.129	-0.333
H	74.27	-3.755	0.008
N	74.0	-1.79	0.543
C	74.305	0.426	0.471
C	73.331	-0.565	0.526
C	80.78	0.449	0.697
C	79.98	-0.705	0.592
C	80.087	1.678	0.735
H	80.644	2.612	0.8
H	80.438	-1.689	0.583
H	77.98	-1.484	0.45
C	78.601	-0.596	0.524
N	78.768	1.801	0.683
C	78.014	0.686	0.577
C	86.84	0.083	0.899
C	86.047	1.14	1.293
S	85.897	-1.276	0.28
C	84.673	0.862	1.1
C	84.416	-0.4	0.564
H	82.655	-1.592	-0.06
H	86.435	2.067	1.698
S	83.19	1.735	1.38
C	83.041	-0.675	0.369
C	82.234	0.377	0.756
C	91.052	-0.371	0.778
C	90.462	0.84	0.35
C	90.171	-1.338	1.305
H	90.549	-2.267	1.719
H	91.088	1.652	-0.006
H	88.639	1.93	0.092
C	89.091	1.0	0.421
N	88.853	-1.192	1.377
C	88.296	-0.047	0.928
C	95.728	0.862	0.71
C	94.762	-0.143	0.674
N	95.059	2.082	0.699
C	93.639	1.896	0.656
C	94.587	-1.583	0.699
O	95.368	-2.531	0.671
O	92.842	2.828	0.599
C	92.623	-3.103	0.569
C	95.599	3.437	0.672
H	96.25	3.582	-0.192
H	94.734	4.099	0.608
H	96.173	3.649	1.575
H	92.281	-3.525	1.52
H	91.797	-3.102	-0.146
H	93.436	-3.728	0.194
N	93.166	-1.763	0.73
C	93.471	0.454	0.658
C	92.497	-0.537	0.713
C	99.946	0.477	0.884
C	99.145	-0.677	0.779
C	99.253	1.705	0.922
H	99.81	2.64	0.987
H	99.604	-1.661	0.77
H	97.146	-1.456	0.637
C	97.767	-0.568	0.711
N	97.934	1.829	0.87
C	97.18	0.713	0.764
C	106.006	0.11	1.086
C	105.213	1.168	1.48
S	105.063	-1.249	0.467
C	103.838	0.89	1.287
C	103.582	-0.372	0.751
H	101.821	-1.564	0.127
H	105.601	2.094	1.885
S	102.356	1.763	1.567
C	102.207	-0.647	0.556
C	101.4	0.404	0.942
C	110.218	-0.343	0.965
C	109.628	0.868	0.537
C	109.337	-1.311	1.492
H	109.715	-2.239	1.906
H	110.254	1.679	0.181
H	107.805	1.957	0.279
C	108.257	1.027	0.608
N	108.019	-1.164	1.564
C	107.462	-0.02	1.115
C	114.894	0.889	0.897
C	113.928	-0.115	0.861
N	114.225	2.109	0.886
C	112.805	1.924	0.843
C	113.753	-1.555	0.886
O	114.534	-2.503	0.858
O	112.008	2.856	0.786
C	111.789	-3.075	0.756
C	114.765	3.464	0.859
H	115.416	3.61	-0.005
H	113.9	4.127	0.795
H	115.339	3.677	1.762
H	111.447	-3.498	1.707
H	110.963	-3.074	0.041
H	112.602	-3.7	0.381
N	112.332	-1.735	0.917
C	112.637	0.481	0.845
C	111.663	-0.51	0.9
C	119.112	0.504	1.071
C	118.311	-0.65	0.966
C	118.419	1.733	1.109
H	118.976	2.667	1.174
H	118.77	-1.634	0.957
H	116.312	-1.429	0.824
C	116.933	-0.541	0.898
N	117.1	1.856	1.057
C	116.346	0.741	0.951
C	125.172	0.138	1.273
C	124.379	1.195	1.667
S	124.229	-1.221	0.654
C	123.004	0.917	1.474
C	122.748	-0.345	0.938
H	120.987	-1.537	0.314
H	124.767	2.122	2.072
S	121.522	1.79	1.754
C	121.373	-0.62	0.743
C	120.566	0.432	1.129
C	129.384	-0.316	1.152
C	128.794	0.895	0.724
C	128.503	-1.283	1.679
H	128.881	-2.212	2.093
H	129.42	1.707	0.368
H	126.971	1.985	0.466
C	127.423	1.055	0.795
N	127.185	-1.137	1.751
C	126.628	0.008	1.302
C	134.06	0.917	1.084
C	133.094	-0.088	1.048
N	133.391	2.137	1.073
C	131.971	1.951	1.03
C	132.919	-1.528	1.073
O	133.7	-2.476	1.045
O	131.174	2.883	0.973
C	130.955	-3.048	0.943
C	133.931	3.492	1.046
H	134.582	3.637	0.182
H	133.066	4.154	0.982
H	134.505	3.704	1.949
H	130.613	-3.47	1.894
H	130.129	-3.047	0.228
H	131.768	-3.673	0.568
N	131.498	-1.708	1.104
C	131.803	0.509	1.032
C	130.829	-0.482	1.087
C	138.278	0.532	1.258
C	137.477	-0.622	1.153
C	137.585	1.76	1.296
H	138.142	2.695	1.361
H	137.936	-1.606	1.144
H	135.478	-1.401	1.011
C	136.099	-0.513	1.085
N	136.266	1.884	1.244
C	135.512	0.768	1.138
C	144.338	0.165	1.46
C	143.545	1.223	1.854
S	143.395	-1.194	0.841
C	142.17	0.945	1.661
C	141.914	-0.317	1.125
H	140.153	-1.509	0.501
H	143.933	2.149	2.259
S	140.688	1.818	1.941
C	140.539	-0.592	0.93
C	139.732	0.459	1.316
C	148.55	-0.288	1.339
C	147.96	0.923	0.911
C	147.669	-1.256	1.866
H	148.047	-2.184	2.28
H	148.586	1.734	0.555
H	146.137	2.012	0.653
C	146.589	1.082	0.982
N	146.351	-1.109	1.938
C	145.794	0.035	1.489
C	153.226	0.944	1.271
C	152.26	-0.06	1.235
N	152.557	2.164	1.26
C	151.137	1.979	1.217
C	152.085	-1.5	1.26
O	152.866	-2.448	1.232
O	150.34	2.911	1.16
C	150.121	-3.02	1.13
C	153.097	3.519	1.233
H	153.748	3.665	0.369
H	152.232	4.182	1.169
H	153.671	3.732	2.136
H	149.779	-3.443	2.081
H	149.295	-3.019	0.415
H	150.934	-3.645	0.755
N	150.664	-1.68	1.291
C	150.969	0.537	1.219
C	149.995	-0.454	1.274
C	157.444	0.559	1.445
C	156.643	-0.594	1.34
C	156.751	1.788	1.483
H	157.308	2.722	1.548
H	157.102	-1.579	1.331
H	154.644	-1.374	1.198
C	155.265	-0.486	1.272
N	155.432	1.911	1.431
C	154.678	0.796	1.325
C	163.504	0.193	1.647
C	162.711	1.25	2.041
S	162.561	-1.166	1.028
C	161.336	0.973	1.848
C	161.08	-0.29	1.312
H	159.319	-1.482	0.688
H	163.099	2.177	2.446
S	159.854	1.845	2.128
C	159.705	-0.565	1.117
C	158.898	0.487	1.503
C	167.716	-0.261	1.526
C	167.126	0.95	1.098
C	166.835	-1.228	2.053
H	167.213	-2.157	2.467
H	167.752	1.762	0.742
H	165.303	2.04	0.84
C	165.755	1.11	1.169
N	165.517	-1.082	2.125
C	164.96	0.063	1.675
C	172.392	0.972	1.458
C	171.426	-0.032	1.422
N	171.723	2.192	1.447
C	170.303	2.006	1.404
C	171.251	-1.473	1.447
O	172.032	-2.421	1.419
O	169.506	2.938	1.347
C	169.287	-2.993	1.317
C	172.263	3.547	1.42
H	172.914	3.693	0.556
H	171.398	4.209	1.356
H	172.837	3.759	2.323
H	168.945	-3.415	2.268
H	168.461	-2.992	0.602
H	170.1	-3.617	0.942
N	169.83	-1.652	1.478
C	170.135	0.564	1.406
C	169.161	-0.427	1.461
C	176.61	0.587	1.632
C	175.809	-0.567	1.527
C	175.917	1.816	1.67
H	176.474	2.75	1.735
H	176.268	-1.551	1.518
H	173.81	-1.346	1.385
C	174.431	-0.458	1.459
N	174.598	1.939	1.618
C	173.844	0.824	1.512
C	182.67	0.22	1.834
C	181.877	1.278	2.228
S	181.727	-1.139	1.215
C	180.502	1.0	2.035
C	180.246	-0.262	1.499
H	178.485	-1.454	0.875
H	182.265	2.205	2.633
S	179.02	1.873	2.315
C	178.871	-0.537	1.304
C	178.064	0.514	1.69
H	-8.609	-0.07	0.022
H	183.751	0.223	1.896
