492
BNT_DPP-b12_2_8x2_BNT_TFF_10
C	5.468	0.548	0.0
C	5.704	1.948	0.0
N	6.477	-0.349	0.0
C	7.003	2.425	0.0
C	8.068	1.507	0.0
C	7.706	0.133	0.0
H	4.866	2.637	0.0
H	7.194	3.495	0.0
H	9.953	2.669	0.0
S	9.131	-0.908	-0.0
C	9.48	1.692	0.0
C	10.19	0.514	-0.0
C	0.615	0.576	0.0
C	1.814	-0.138	0.0
N	0.951	1.928	0.0
C	2.372	2.115	0.0
C	2.339	-1.488	0.0
O	1.803	-2.594	0.0
O	2.888	3.23	0.0
C	4.621	-2.488	0.0
C	0.079	3.091	0.0
H	0.738	3.962	0.0
H	-0.551	3.121	0.894
H	-0.551	3.121	-0.894
H	5.259	-2.508	0.885
H	5.259	-2.508	-0.885
H	3.949	-3.347	0.0
N	3.76	-1.31	0.0
C	2.907	0.766	0.0
C	4.1	0.038	0.0
C	-5.148	-1.612	0.0
C	-4.449	-2.848	0.0
N	-4.513	-0.424	0.0
C	-3.067	-2.852	0.0
C	-2.381	-1.622	0.0
C	-3.19	-0.455	0.0
H	-5.004	-3.777	0.0
H	-2.516	-3.789	0.0
H	-0.203	-2.073	0.0
S	-2.209	1.004	0.0
C	-0.992	-1.325	0.0
C	-0.718	0.029	0.0
C	-8.991	-0.674	-0.0
C	-8.885	-2.046	-0.0
S	-7.38	0.034	-0.0
F	-7.3	-3.844	0.0
F	-9.929	-2.886	-0.0
C	-7.555	-2.526	-0.0
C	-6.6	-1.538	0.0
C	-14.903	0.176	0.0
C	-14.667	1.576	0.0
N	-13.894	-0.72	-0.0
C	-13.368	2.053	0.0
C	-12.303	1.135	0.0
C	-12.665	-0.239	-0.0
H	-15.506	2.265	0.0
H	-13.178	3.123	0.0
H	-10.419	2.297	0.0
S	-11.24	-1.28	-0.0
C	-10.891	1.32	-0.0
C	-10.182	0.143	-0.0
C	-19.757	0.205	0.0
C	-18.558	-0.51	0.0
N	-19.42	1.557	0.0
C	-17.999	1.744	0.0
C	-18.032	-1.859	0.0
O	-18.569	-2.965	0.0
O	-17.484	2.858	0.0
C	-15.75	-2.859	0.0
C	-20.292	2.72	0.0
H	-19.633	3.59	0.0
H	-20.922	2.749	0.894
H	-20.922	2.749	-0.894
H	-15.113	-2.88	0.885
H	-15.113	-2.88	-0.885
H	-16.423	-3.719	0.0
N	-16.612	-1.681	0.0
C	-17.464	0.394	0.0
C	-16.271	-0.333	0.0
C	-25.519	-1.984	-0.0
C	-24.821	-3.22	0.0
N	-24.884	-0.795	-0.0
C	-23.438	-3.224	0.0
C	-22.753	-1.993	0.0
C	-23.562	-0.826	0.0
H	-25.376	-4.149	0.0
H	-22.887	-4.16	0.0
H	-20.575	-2.444	0.0
S	-22.58	0.633	0.0
C	-21.364	-1.697	0.0
C	-21.089	-0.342	0.0
C	-29.362	-1.046	-0.0
C	-29.256	-2.417	-0.0
S	-27.752	-0.338	-0.0
F	-27.672	-4.215	-0.0
F	-30.301	-3.258	-0.0
C	-27.927	-2.898	-0.0
C	-26.971	-1.909	-0.0
C	-35.275	-0.196	0.0
C	-35.039	1.204	0.0
N	-34.266	-1.092	-0.0
C	-33.74	1.682	0.0
C	-32.675	0.763	-0.0
C	-33.037	-0.61	-0.0
H	-35.877	1.893	0.0
H	-33.549	2.752	0.0
H	-30.79	1.926	-0.0
S	-31.611	-1.652	-0.0
C	-31.262	0.949	-0.0
C	-30.553	-0.229	-0.0
C	-40.128	-0.167	0.0
C	-38.929	-0.882	0.0
N	-39.792	1.185	0.0
C	-38.371	1.372	0.0
C	-38.404	-2.231	0.0
O	-38.94	-3.337	0.0
O	-37.855	2.487	0.0
C	-36.122	-3.231	0.0
C	-40.664	2.348	0.0
H	-40.005	3.218	0.0
H	-41.294	2.378	0.894
H	-41.294	2.378	-0.894
H	-35.484	-3.251	0.885
H	-35.484	-3.251	-0.885
H	-36.794	-4.09	0.0
N	-36.983	-2.053	0.0
C	-37.836	0.023	0.0
C	-36.643	-0.705	0.0
C	-45.891	-2.355	-0.0
C	-45.192	-3.591	-0.0
N	-45.256	-1.167	-0.0
C	-43.81	-3.596	-0.0
C	-43.124	-2.365	-0.0
C	-43.933	-1.198	-0.0
H	-45.747	-4.52	-0.0
H	-43.259	-4.532	0.0
H	-40.946	-2.816	0.0
S	-42.952	0.261	-0.0
C	-41.735	-2.069	0.0
C	-41.461	-0.714	0.0
C	-49.734	-1.417	-0.0
C	-49.628	-2.789	-0.0
S	-48.123	-0.709	-0.0
F	-48.043	-4.587	-0.0
F	-50.672	-3.629	-0.0
C	-48.298	-3.27	-0.0
C	-47.343	-2.281	-0.0
C	-55.646	-0.567	-0.0
C	-55.41	0.833	0.0
N	-54.637	-1.464	-0.0
C	-54.111	1.31	-0.0
C	-53.046	0.392	-0.0
C	-53.408	-0.982	-0.0
H	-56.249	1.522	0.0
H	-53.921	2.38	0.0
H	-51.161	1.554	-0.0
S	-51.983	-2.023	-0.0
C	-51.634	0.577	-0.0
C	-50.925	-0.601	-0.0
C	-60.5	-0.539	-0.0
C	-59.301	-1.253	0.0
N	-60.163	0.813	-0.0
C	-58.742	1.0	0.0
C	-58.775	-2.603	-0.0
O	-59.312	-3.709	-0.0
O	-58.227	2.115	0.0
C	-56.493	-3.602	-0.0
C	-61.035	1.976	-0.0
H	-60.376	2.847	0.0
H	-61.665	2.006	0.894
H	-61.665	2.006	-0.894
H	-55.856	-3.623	0.885
H	-55.856	-3.623	-0.885
H	-57.166	-4.462	-0.0
N	-57.355	-2.425	-0.0
C	-58.207	-0.349	0.0
C	-57.014	-1.076	-0.0
C	-66.262	-2.727	-0.0
C	-65.564	-3.963	-0.0
N	-65.627	-1.539	-0.0
C	-64.181	-3.967	-0.0
C	-63.496	-2.736	-0.0
C	-64.305	-1.569	-0.0
H	-66.119	-4.892	-0.0
H	-63.63	-4.904	-0.0
H	-61.318	-3.187	-0.0
S	-63.323	-0.111	-0.0
C	-62.107	-2.44	-0.0
C	-61.832	-1.085	-0.0
C	-70.105	-1.789	-0.0
C	-69.999	-3.161	-0.0
S	-68.495	-1.081	-0.0
F	-68.415	-4.959	-0.0
F	-71.044	-4.001	-0.0
C	-68.67	-3.641	-0.0
C	-67.714	-2.653	-0.0
C	-76.018	-0.939	-0.0
C	-75.781	0.461	-0.0
N	-75.009	-1.835	-0.0
C	-74.483	0.938	-0.0
C	-73.418	0.02	-0.0
C	-73.78	-1.353	-0.0
H	-76.62	1.15	0.0
H	-74.292	2.008	-0.0
H	-71.533	1.182	-0.0
S	-72.354	-2.395	-0.0
C	-72.005	0.206	-0.0
C	-71.296	-0.972	-0.0
C	-80.871	-0.91	-0.0
C	-79.672	-1.625	-0.0
N	-80.535	0.442	-0.0
C	-79.114	0.629	-0.0
C	-79.146	-2.974	-0.0
O	-79.683	-4.08	-0.0
O	-78.598	1.743	-0.0
C	-76.865	-3.974	-0.0
C	-81.406	1.605	-0.0
H	-80.748	2.475	-0.0
H	-82.037	1.634	0.894
H	-82.037	1.634	-0.894
H	-76.227	-3.994	0.885
H	-76.227	-3.994	-0.886
H	-77.537	-4.833	-0.0
N	-77.726	-2.796	-0.0
C	-78.578	-0.721	-0.0
C	-77.386	-1.448	-0.0
C	-86.634	-3.099	-0.0
C	-85.935	-4.334	-0.0
N	-85.999	-1.91	-0.0
C	-84.553	-4.339	-0.0
C	-83.867	-3.108	-0.0
C	-84.676	-1.941	-0.0
H	-86.49	-5.264	-0.0
H	-84.002	-5.275	-0.0
H	-81.689	-3.559	-0.0
S	-83.695	-0.482	-0.0
C	-82.478	-2.812	-0.0
C	-82.204	-1.457	-0.0
C	-90.477	-2.16	-0.0
C	-90.371	-3.532	-0.0
S	-88.866	-1.452	-0.0
F	-88.786	-5.33	-0.0
F	-91.415	-4.373	-0.0
C	-89.041	-4.013	-0.0
C	-88.086	-3.024	-0.0
C	-96.389	-1.311	-0.0
C	-96.153	0.09	-0.0
N	-95.38	-2.207	-0.0
C	-94.854	0.567	-0.0
C	-93.789	-0.352	-0.0
C	-94.151	-1.725	-0.0
H	-96.992	0.779	-0.0
H	-94.664	1.637	-0.0
H	-91.904	0.811	-0.0
S	-92.726	-2.767	-0.0
C	-92.377	-0.166	-0.0
C	-91.668	-1.344	-0.0
C	-101.243	-1.282	-0.0
C	-100.044	-1.997	-0.0
N	-100.906	0.07	-0.0
C	-99.485	0.257	-0.0
C	-99.518	-3.346	-0.0
O	-100.055	-4.452	-0.0
O	-98.97	1.372	-0.0
C	-97.236	-4.346	-0.0
C	-101.778	1.233	-0.0
H	-101.119	2.103	-0.0
H	-102.408	1.263	0.894
H	-102.408	1.263	-0.894
H	-96.599	-4.366	0.885
H	-96.599	-4.366	-0.886
H	-97.908	-5.205	-0.0
N	-98.098	-3.168	-0.0
C	-98.95	-1.092	-0.0
C	-97.757	-1.82	-0.0
C	-107.005	-3.47	-0.0
C	-106.307	-4.706	-0.0
N	-106.37	-2.282	-0.0
C	-104.924	-4.711	-0.0
C	-104.239	-3.48	-0.0
C	-105.048	-2.313	-0.0
H	-106.862	-5.635	-0.0
H	-104.373	-5.647	-0.0
H	-102.061	-3.931	-0.0
S	-104.066	-0.854	-0.0
C	-102.85	-3.184	-0.0
C	-102.575	-1.829	-0.0
C	-110.848	-2.532	-0.0
C	-110.742	-3.904	-0.0
S	-109.238	-1.824	-0.0
F	-109.158	-5.702	-0.0
F	-111.787	-4.744	-0.0
C	-109.413	-4.385	-0.0
C	-108.457	-3.396	-0.0
C	-116.761	-1.682	-0.0
C	-116.524	-0.282	-0.0
N	-115.752	-2.579	-0.0
C	-115.226	0.195	-0.0
C	-114.161	-0.723	-0.0
C	-114.523	-2.097	-0.0
H	-117.363	0.407	-0.0
H	-115.035	1.265	-0.0
H	-112.276	0.439	-0.0
S	-113.097	-3.138	-0.001
C	-112.748	-0.538	-0.0
C	-112.039	-1.716	-0.0
C	-121.614	-1.653	-0.0
C	-120.415	-2.368	-0.0
N	-121.278	-0.301	-0.0
C	-119.856	-0.114	-0.0
C	-119.889	-3.718	-0.0
O	-120.426	-4.824	-0.0
O	-119.341	1.0	-0.0
C	-117.608	-4.717	-0.0
C	-122.149	0.862	-0.0
H	-121.49	1.732	-0.0
H	-122.78	0.891	0.894
H	-122.78	0.891	-0.894
H	-116.97	-4.738	0.885
H	-116.97	-4.738	-0.886
H	-118.28	-5.577	-0.0
N	-118.469	-3.539	-0.0
C	-119.321	-1.464	-0.0
C	-118.129	-2.191	-0.0
C	-127.377	-3.842	-0.0
C	-126.678	-5.078	-0.0
N	-126.741	-2.654	-0.0
C	-125.296	-5.082	-0.0
C	-124.61	-3.851	-0.0
C	-125.419	-2.684	-0.0
H	-127.233	-6.007	-0.0
H	-124.745	-6.018	-0.0
H	-122.432	-4.302	-0.0
S	-124.438	-1.225	-0.0
C	-123.221	-3.555	-0.0
C	-122.947	-2.2	-0.0
C	-131.22	-2.904	-0.0
C	-131.114	-4.275	-0.0
S	-129.609	-2.196	-0.0
F	-129.529	-6.074	-0.0
F	-132.158	-5.116	-0.001
C	-129.784	-4.756	-0.0
C	-128.829	-3.767	-0.0
C	-137.132	-2.054	-0.0
C	-136.896	-0.654	-0.0
N	-136.123	-2.95	-0.0
C	-135.597	-0.176	-0.0
C	-134.532	-1.095	-0.0
C	-134.894	-2.468	-0.0
H	-137.735	0.035	-0.0
H	-135.407	0.893	-0.0
H	-132.647	0.068	-0.0
S	-133.469	-3.51	-0.001
C	-133.12	-0.909	-0.0
C	-132.411	-2.087	-0.001
C	-141.986	-2.025	-0.0
C	-140.787	-2.74	-0.0
N	-141.649	-0.673	-0.0
C	-140.228	-0.486	-0.0
C	-140.261	-4.089	-0.0
O	-140.798	-5.195	-0.0
O	-139.713	0.628	-0.0
C	-137.979	-5.089	-0.0
C	-142.521	0.49	-0.0
H	-141.862	1.36	-0.0
H	-143.151	0.519	0.894
H	-143.151	0.519	-0.894
H	-137.341	-5.109	0.885
H	-137.342	-5.109	-0.886
H	-138.651	-5.948	-0.0
N	-138.841	-3.911	-0.0
C	-139.693	-1.836	-0.0
C	-138.5	-2.563	-0.0
C	-147.748	-4.214	-0.0
C	-147.05	-5.449	-0.0
N	-147.113	-3.025	-0.0
C	-145.667	-5.454	-0.0
C	-144.982	-4.223	-0.0
C	-145.791	-3.056	-0.0
H	-147.605	-6.378	-0.0
H	-145.116	-6.39	-0.0
H	-142.804	-4.674	-0.0
S	-144.809	-1.597	-0.0
C	-143.593	-3.927	-0.0
C	-143.318	-2.572	-0.0
C	-151.591	-3.275	-0.001
C	-151.485	-4.647	-0.001
S	-149.981	-2.567	-0.001
F	-149.901	-6.445	-0.0
F	-152.529	-5.488	-0.001
C	-150.156	-5.128	-0.001
C	-149.2	-4.139	-0.0
C	-157.504	-2.425	-0.0
C	-157.267	-1.025	-0.0
N	-156.494	-3.322	-0.0
C	-155.969	-0.548	-0.0
C	-154.904	-1.467	-0.0
C	-155.266	-2.84	-0.001
H	-158.106	-0.336	-0.0
H	-155.778	0.522	-0.0
H	-153.019	-0.304	-0.0
S	-153.84	-3.882	-0.001
C	-153.491	-1.281	-0.0
C	-152.782	-2.459	-0.001
C	-162.357	-2.397	-0.0
C	-161.158	-3.112	-0.0
N	-162.021	-1.045	-0.0
C	-160.599	-0.858	-0.0
C	-160.632	-4.461	-0.0
O	-161.169	-5.567	-0.0
O	-160.084	0.257	-0.0
C	-158.35	-5.461	-0.0
C	-162.892	0.118	-0.0
H	-162.233	0.989	-0.0
H	-163.523	0.148	0.894
H	-163.523	0.148	-0.894
H	-157.713	-5.481	0.885
H	-157.713	-5.481	-0.886
H	-159.023	-6.32	-0.0
N	-159.212	-4.283	-0.0
C	-160.064	-2.207	-0.0
C	-158.872	-2.935	-0.0
C	-168.119	-4.585	-0.001
C	-167.421	-5.821	-0.0
N	-167.484	-3.397	-0.001
C	-166.039	-5.825	-0.0
C	-165.353	-4.595	-0.0
C	-166.162	-3.428	-0.0
H	-167.976	-6.75	-0.0
H	-165.488	-6.762	-0.0
H	-163.175	-5.046	-0.0
S	-165.181	-1.969	-0.0
C	-163.964	-4.298	-0.0
C	-163.69	-2.944	-0.0
C	-171.963	-3.647	-0.001
C	-171.857	-5.019	-0.001
S	-170.352	-2.939	-0.001
F	-170.272	-6.817	-0.001
F	-172.901	-5.859	-0.001
C	-170.527	-5.5	-0.001
C	-169.572	-4.511	-0.001
C	-177.875	-2.797	-0.0
C	-177.639	-1.397	-0.0
N	-176.866	-3.694	-0.001
C	-176.34	-0.92	-0.0
C	-175.275	-1.838	-0.001
C	-175.637	-3.212	-0.001
H	-178.477	-0.708	-0.0
H	-176.15	0.15	-0.0
H	-173.39	-0.676	-0.001
S	-174.212	-4.253	-0.001
C	-173.863	-1.653	-0.001
C	-173.153	-2.83	-0.001
C	-182.728	-2.768	-0.0
C	-181.53	-3.483	-0.0
N	-182.392	-1.416	-0.0
C	-180.971	-1.229	-0.0
C	-181.004	-4.832	-0.0
O	-181.541	-5.938	-0.0
O	-180.456	-0.115	-0.0
C	-178.722	-5.832	-0.0
C	-183.264	-0.253	-0.0
H	-182.605	0.617	-0.0
H	-183.894	-0.224	0.894
H	-183.894	-0.224	-0.894
H	-178.084	-5.853	0.885
H	-178.085	-5.853	-0.886
H	-179.394	-6.692	-0.0
N	-179.584	-4.654	-0.0
C	-180.436	-2.579	-0.0
C	-179.243	-3.306	-0.0
C	-188.491	-4.957	-0.001
C	-187.793	-6.193	-0.001
N	-187.856	-3.768	-0.001
C	-186.41	-6.197	-0.001
C	-185.725	-4.966	-0.0
C	-186.533	-3.799	-0.001
H	-188.347	-7.122	-0.001
H	-185.859	-7.133	-0.0
H	-183.547	-5.417	-0.0
S	-185.552	-2.34	-0.001
C	-184.336	-4.67	-0.0
C	-184.061	-3.315	-0.0
C	-192.334	-4.019	-0.001
C	-192.228	-5.39	-0.001
S	-190.723	-3.311	-0.001
F	-190.644	-7.188	-0.001
F	-193.272	-6.231	-0.001
C	-190.899	-5.871	-0.001
C	-189.943	-4.882	-0.001
H	11.271	0.461	-0.0
H	-193.263	-3.462	-0.001
