392
DPP-b12_2_8x2_FU_FU_FU_10
C	4.576	0.158	-0.0
C	5.76	-0.572	-0.0
N	4.917	1.508	-0.0
C	6.344	1.683	-0.0
C	6.272	-1.925	-0.0
O	5.73	-3.027	-0.0
O	6.885	2.785	-0.0
C	8.585	-2.902	0.0
C	4.032	2.661	-0.0
H	3.397	2.673	-0.89
H	4.68	3.539	-0.0
H	3.397	2.673	0.89
H	9.221	-2.913	0.89
H	9.221	-2.913	-0.889
H	7.938	-3.781	0.0
N	7.699	-1.749	0.0
C	6.854	0.329	-0.0
C	8.038	-0.401	0.0
C	1.049	-0.321	-0.0
C	1.411	-1.653	-0.0
O	2.165	0.467	-0.0
H	0.73	-2.492	-0.0
H	3.478	-2.552	-0.0
C	2.822	-1.69	-0.0
C	3.254	-0.375	-0.0
C	-2.417	0.389	-0.0
C	-1.998	1.701	-0.0
O	-1.331	-0.446	-0.0
H	-2.639	2.571	-0.0
H	0.093	2.518	-0.0
C	-0.581	1.674	-0.0
C	-0.213	0.346	-0.0
C	-5.908	-0.201	-0.0
C	-5.527	-1.53	-0.0
O	-4.788	0.6	-0.0
H	-6.215	-2.366	-0.0
H	-3.466	-2.411	-0.0
C	-4.115	-1.547	-0.0
C	-3.704	-0.229	-0.0
C	-10.687	-0.092	0.0
C	-9.484	0.608	0.0
N	-10.38	-1.449	0.0
C	-8.958	-1.661	0.0
C	-8.938	1.948	0.0
O	-9.452	3.063	0.0
O	-8.445	-2.776	0.0
C	-6.601	2.866	-0.0
C	-11.293	-2.579	0.0
H	-11.929	-2.576	0.891
H	-10.668	-3.474	0.0
H	-11.929	-2.576	-0.89
H	-5.965	2.86	-0.89
H	-5.964	2.86	0.889
H	-7.225	3.761	-0.0
N	-7.516	1.736	0.0
C	-8.414	-0.321	0.0
C	-7.212	0.38	0.0
C	-14.2	0.477	0.0
C	-13.804	1.8	0.0
O	-13.104	-0.339	0.0
H	-14.464	2.656	0.0
H	-11.715	2.645	0.0
C	-12.393	1.801	0.0
C	-11.994	0.475	0.0
C	-17.683	-0.145	0.0
C	-17.297	-1.467	0.0
O	-16.576	0.663	0.0
H	-17.96	-2.32	0.0
H	-15.227	-2.336	0.0
C	-15.88	-1.476	0.0
C	-15.479	-0.157	0.0
C	-21.158	0.534	0.0
C	-20.743	1.853	0.0
O	-20.059	-0.296	0.0
H	-21.41	2.706	0.0
H	-18.661	2.681	0.0
C	-19.331	1.834	0.0
C	-18.954	0.506	0.0
C	-25.939	0.406	0.0
C	-24.755	-0.325	0.0
N	-25.598	1.755	0.0
C	-24.171	1.93	0.0
C	-24.243	-1.678	0.0
O	-24.785	-2.78	0.0
O	-23.63	3.032	0.0
C	-21.93	-2.654	0.001
C	-26.482	2.908	0.0
H	-27.118	2.921	-0.89
H	-25.835	3.787	0.0
H	-27.118	2.921	0.891
H	-21.294	-2.665	0.89
H	-21.294	-2.665	-0.889
H	-22.576	-3.534	0.0
N	-22.816	-1.502	0.0
C	-23.661	0.577	0.0
C	-22.477	-0.154	0.0
C	-29.466	-0.074	0.0
C	-29.104	-1.406	0.0
O	-28.35	0.714	0.0
H	-29.785	-2.245	0.0
H	-27.037	-2.304	0.0
C	-27.693	-1.443	0.0
C	-27.261	-0.128	0.0
C	-32.932	0.636	0.0
C	-32.513	1.949	0.0
O	-31.846	-0.199	0.0
H	-33.153	2.818	0.0
H	-30.422	2.765	0.0
C	-31.096	1.921	0.0
C	-30.728	0.593	0.0
C	-36.423	0.047	0.0
C	-36.041	-1.283	0.0
O	-35.303	0.848	0.0
H	-36.73	-2.119	0.0
H	-33.981	-2.163	0.0
C	-34.63	-1.3	0.0
C	-34.219	0.019	0.0
C	-41.201	0.156	0.001
C	-39.999	0.856	0.001
N	-40.895	-1.202	0.001
C	-39.473	-1.413	0.001
C	-39.453	2.195	0.001
O	-39.967	3.311	0.001
O	-38.959	-2.528	0.001
C	-37.116	3.113	0.0
C	-41.808	-2.332	0.001
H	-42.444	-2.329	0.891
H	-41.183	-3.227	0.001
H	-42.444	-2.329	-0.89
H	-36.48	3.108	-0.889
H	-36.479	3.108	0.89
H	-37.74	4.009	0.0
N	-38.031	1.983	0.0
C	-38.928	-0.073	0.001
C	-37.726	0.627	0.0
C	-44.715	0.725	0.001
C	-44.319	2.047	0.001
O	-43.619	-0.092	0.001
H	-44.978	2.903	0.001
H	-42.23	2.893	0.001
C	-42.908	2.048	0.001
C	-42.509	0.723	0.001
C	-48.198	0.103	0.001
C	-47.812	-1.22	0.001
O	-47.091	0.91	0.001
H	-48.475	-2.073	0.001
H	-45.742	-2.089	0.001
C	-46.395	-1.228	0.001
C	-45.994	0.09	0.001
C	-51.673	0.781	0.001
C	-51.257	2.101	0.001
O	-50.573	-0.048	0.001
H	-51.925	2.954	0.001
H	-49.176	2.928	0.001
C	-49.846	2.082	0.001
C	-49.469	0.753	0.001
C	-56.454	0.653	0.001
C	-55.269	-0.077	0.001
N	-56.113	2.003	0.001
C	-54.686	2.178	0.001
C	-54.758	-1.43	0.001
O	-55.3	-2.532	0.001
O	-54.145	3.28	0.001
C	-52.445	-2.407	0.001
C	-56.997	3.156	0.001
H	-57.633	3.168	-0.89
H	-56.349	4.034	0.001
H	-57.633	3.168	0.891
H	-51.809	-2.418	0.89
H	-51.809	-2.418	-0.888
H	-53.091	-3.286	0.001
N	-53.331	-1.254	0.001
C	-54.176	0.824	0.001
C	-52.992	0.094	0.001
C	-59.981	0.174	0.001
C	-59.619	-1.159	0.001
O	-58.865	0.962	0.001
H	-60.3	-1.997	0.001
H	-57.552	-2.057	0.001
C	-58.208	-1.196	0.001
C	-57.776	0.12	0.001
C	-63.447	0.884	0.001
C	-63.027	2.196	0.001
O	-62.361	0.049	0.001
H	-63.668	3.066	0.001
H	-60.936	3.012	0.001
C	-61.611	2.169	0.001
C	-61.243	0.84	0.001
C	-66.938	0.294	0.001
C	-66.556	-1.036	0.001
O	-65.818	1.095	0.001
H	-67.245	-1.871	0.001
H	-64.496	-1.916	0.001
C	-65.145	-1.052	0.001
C	-64.734	0.266	0.001
C	-71.716	0.403	0.001
C	-70.513	1.103	0.001
N	-71.409	-0.954	0.001
C	-69.987	-1.166	0.001
C	-69.968	2.443	0.001
O	-70.481	3.558	0.001
O	-69.474	-2.281	0.001
C	-67.63	3.361	0.001
C	-72.323	-2.085	0.001
H	-72.958	-2.081	0.891
H	-71.697	-2.979	0.001
H	-72.958	-2.081	-0.889
H	-66.994	3.355	-0.889
H	-66.994	3.355	0.89
H	-68.254	4.256	0.001
N	-68.546	2.231	0.001
C	-69.443	0.174	0.001
C	-68.241	0.875	0.001
C	-75.23	0.972	0.001
C	-74.834	2.295	0.001
O	-74.134	0.156	0.001
H	-75.493	3.15	0.001
H	-72.745	3.14	0.001
C	-73.423	2.296	0.001
C	-73.024	0.97	0.001
C	-78.712	0.35	0.001
C	-78.327	-0.972	0.001
O	-77.605	1.158	0.001
H	-78.989	-1.825	0.001
H	-76.257	-1.841	0.001
C	-76.91	-0.981	0.001
C	-76.509	0.338	0.001
C	-82.188	1.028	0.001
C	-81.772	2.348	0.001
O	-81.088	0.199	0.001
H	-82.44	3.201	0.001
H	-79.69	3.176	0.001
C	-80.361	2.329	0.001
C	-79.984	1.0	0.001
C	-86.969	0.901	0.001
C	-85.784	0.17	0.001
N	-86.628	2.25	0.001
C	-85.201	2.425	0.001
C	-85.273	-1.183	0.001
O	-85.815	-2.285	0.001
O	-84.659	3.527	0.001
C	-82.96	-2.16	0.001
C	-87.512	3.403	0.001
H	-88.148	3.416	-0.889
H	-86.864	4.281	0.001
H	-88.147	3.416	0.892
H	-82.324	-2.17	0.891
H	-82.323	-2.17	-0.888
H	-83.606	-3.039	0.001
N	-83.846	-1.007	0.001
C	-84.691	1.072	0.001
C	-83.507	0.341	0.001
C	-90.496	0.421	0.001
C	-90.134	-0.911	0.001
O	-89.38	1.209	0.001
H	-90.815	-1.75	0.001
H	-88.067	-1.809	0.001
C	-88.723	-0.948	0.001
C	-88.291	0.367	0.001
C	-93.961	1.131	0.001
C	-93.542	2.444	0.001
O	-92.875	0.296	0.001
H	-94.183	3.313	0.001
H	-91.451	3.26	0.001
C	-92.126	2.416	0.001
C	-91.758	1.088	0.001
C	-97.453	0.542	0.001
C	-97.071	-0.788	0.001
O	-96.333	1.343	0.001
H	-97.76	-1.624	0.001
H	-95.011	-1.668	0.001
C	-95.66	-0.805	0.001
C	-95.249	0.514	0.001
C	-102.231	0.651	0.001
C	-101.028	1.351	0.001
N	-101.924	-0.707	0.001
C	-100.502	-0.918	0.002
C	-100.483	2.69	0.001
O	-100.996	3.806	0.001
O	-99.989	-2.034	0.001
C	-98.145	3.608	0.001
C	-102.838	-1.837	0.001
H	-103.473	-1.834	0.892
H	-102.212	-2.732	0.001
H	-103.473	-1.834	-0.889
H	-97.509	3.603	-0.888
H	-97.509	3.603	0.89
H	-98.769	4.503	0.001
N	-99.061	2.478	0.001
C	-99.958	0.422	0.001
C	-98.756	1.122	0.001
C	-105.744	1.219	0.002
C	-105.349	2.542	0.002
O	-104.649	0.403	0.002
H	-106.008	3.398	0.002
H	-103.26	3.388	0.002
C	-103.937	2.543	0.002
C	-103.539	1.218	0.002
C	-109.227	0.598	0.002
C	-108.842	-0.725	0.002
O	-108.12	1.405	0.002
H	-109.504	-1.578	0.002
H	-106.772	-1.594	0.002
C	-107.425	-0.733	0.002
C	-107.023	0.585	0.002
C	-112.703	1.276	0.002
C	-112.287	2.596	0.002
O	-111.603	0.447	0.002
H	-112.954	3.449	0.002
H	-110.205	3.423	0.002
C	-110.876	2.576	0.002
C	-110.499	1.248	0.002
C	-117.484	1.148	0.001
C	-116.299	0.418	0.001
N	-117.143	2.497	0.001
C	-115.716	2.672	0.001
C	-115.788	-0.935	0.001
O	-116.33	-2.037	0.002
O	-115.174	3.774	0.002
C	-113.474	-1.912	0.002
C	-118.027	3.65	0.002
H	-118.662	3.663	-0.889
H	-117.379	4.529	0.002
H	-118.662	3.663	0.892
H	-112.838	-1.923	0.891
H	-112.838	-1.923	-0.888
H	-114.121	-2.792	0.002
N	-114.361	-0.759	0.002
C	-115.206	1.319	0.001
C	-114.022	0.589	0.002
C	-121.01	0.669	0.002
C	-120.649	-0.664	0.001
O	-119.895	1.457	0.001
H	-121.329	-1.502	0.001
H	-118.582	-1.562	0.001
C	-119.238	-0.701	0.001
C	-118.806	0.615	0.001
C	-124.476	1.379	0.002
C	-124.057	2.691	0.002
O	-123.39	0.543	0.002
H	-124.698	3.561	0.002
H	-121.966	3.507	0.002
C	-122.64	2.664	0.002
C	-122.273	1.335	0.002
C	-127.968	0.789	0.002
C	-127.586	-0.541	0.002
O	-126.848	1.59	0.002
H	-128.275	-1.376	0.002
H	-125.526	-1.421	0.002
C	-126.175	-0.557	0.002
C	-125.764	0.761	0.002
C	-132.746	0.898	0.002
C	-131.543	1.598	0.002
N	-132.439	-0.46	0.002
C	-131.017	-0.671	0.002
C	-130.998	2.938	0.002
O	-131.511	4.053	0.002
O	-130.504	-1.786	0.002
C	-128.66	3.855	0.002
C	-133.353	-1.59	0.002
H	-133.988	-1.586	0.892
H	-132.727	-2.484	0.002
H	-133.988	-1.586	-0.889
H	-128.024	3.85	-0.888
H	-128.024	3.85	0.891
H	-129.284	4.751	0.002
N	-129.575	2.726	0.002
C	-130.473	0.669	0.002
C	-129.271	1.369	0.002
C	-136.259	1.467	0.002
C	-135.864	2.79	0.002
O	-135.164	0.651	0.002
H	-136.523	3.645	0.002
H	-133.775	3.635	0.002
C	-134.452	2.791	0.002
C	-134.054	1.465	0.002
C	-139.742	0.845	0.002
C	-139.356	-0.477	0.002
O	-138.635	1.653	0.002
H	-140.019	-1.33	0.002
H	-137.287	-1.347	0.002
C	-137.939	-0.486	0.002
C	-137.538	0.833	0.002
C	-143.218	1.523	0.002
C	-142.802	2.843	0.002
O	-142.118	0.694	0.002
H	-143.469	3.696	0.002
H	-140.72	3.671	0.002
C	-141.391	2.824	0.002
C	-141.013	1.495	0.002
H	9.04	0.006	0.0
H	-144.248	1.193	0.002
