322
DPP-b12_2_8x2_FU_FU_10
C	-2.88	-0.196	-0.0
C	-4.092	0.488	-0.0
N	-3.169	-1.557	-0.0
C	-4.588	-1.787	-0.0
C	-4.656	1.821	-0.0
O	-4.157	2.943	0.0
O	-5.087	-2.909	-0.0
C	-7.006	2.708	0.0
C	-2.24	-2.676	-0.0
H	-1.605	-2.664	-0.891
H	-2.853	-3.578	-0.0
H	-1.605	-2.664	0.89
H	-7.641	2.693	0.89
H	-7.641	2.693	-0.889
H	-6.394	3.612	0.0
N	-6.075	1.59	0.0
C	-5.15	-0.455	-0.0
C	-6.361	0.23	0.0
C	0.625	0.422	-0.0
C	0.209	1.74	-0.0
O	-0.46	-0.409	-0.0
H	0.856	2.606	-0.0
H	-1.891	2.556	-0.0
C	-1.201	1.721	-0.0
C	-1.58	0.389	-0.0
C	4.115	-0.166	-0.0
C	3.734	-1.497	-0.0
O	2.995	0.634	-0.0
H	4.423	-2.332	-0.0
H	1.676	-2.379	-0.0
C	2.323	-1.514	-0.0
C	1.911	-0.195	-0.0
C	8.898	-0.012	-0.0
C	7.687	0.673	-0.0
N	8.61	-1.373	-0.0
C	7.191	-1.603	-0.0
C	7.123	2.005	-0.0
O	7.622	3.127	-0.0
O	6.692	-2.725	-0.0
C	4.773	2.892	0.0
C	9.539	-2.491	-0.0
H	10.174	-2.48	-0.891
H	8.926	-3.394	-0.0
H	10.174	-2.48	0.89
H	4.138	2.878	0.89
H	4.137	2.878	-0.889
H	5.385	3.796	0.0
N	5.704	1.774	0.0
C	6.629	-0.27	-0.0
C	5.418	0.414	-0.0
C	12.403	0.607	-0.0
C	11.988	1.924	-0.0
O	11.319	-0.224	-0.0
H	12.634	2.79	-0.0
H	9.888	2.74	-0.0
C	10.578	1.906	-0.0
C	10.199	0.574	-0.0
C	15.894	0.018	-0.0
C	15.513	-1.313	-0.0
O	14.774	0.818	-0.0
H	16.202	-2.148	-0.0
H	13.455	-2.194	-0.0
C	14.102	-1.33	-0.0
C	13.69	-0.011	-0.0
C	20.677	0.173	-0.0
C	19.466	0.857	-0.0
N	20.389	-1.189	-0.0
C	18.97	-1.419	-0.001
C	18.902	2.189	-0.0
O	19.401	3.311	-0.0
O	18.471	-2.54	-0.0
C	16.552	3.076	0.0
C	21.318	-2.307	-0.0
H	21.953	-2.295	-0.891
H	20.704	-3.21	-0.0
H	21.953	-2.295	0.89
H	15.916	3.062	0.89
H	15.916	3.062	-0.889
H	17.164	3.98	0.0
N	17.483	1.959	-0.0
C	18.408	-0.086	-0.0
C	17.197	0.599	-0.0
C	24.182	0.791	-0.0
C	23.767	2.108	-0.0
O	23.098	-0.04	-0.0
H	24.413	2.974	-0.0
H	21.667	2.924	-0.0
C	22.357	2.09	-0.0
C	21.978	0.758	-0.0
C	27.672	0.202	-0.0
C	27.292	-1.128	-0.0
O	26.553	1.002	-0.0
H	27.981	-1.964	-0.0
H	25.234	-2.01	-0.0
C	25.881	-1.146	-0.0
C	25.468	0.173	-0.0
C	32.456	0.357	-0.0
C	31.245	1.041	-0.0
N	32.168	-1.005	-0.001
C	30.749	-1.235	-0.001
C	30.681	2.374	-0.0
O	31.18	3.495	-0.0
O	30.25	-2.356	-0.0
C	28.331	3.26	-0.0
C	33.097	-2.123	-0.0
H	33.732	-2.111	-0.891
H	32.483	-3.026	-0.001
H	33.732	-2.111	0.89
H	27.695	3.246	0.889
H	27.695	3.246	-0.89
H	28.943	4.164	0.0
N	29.262	2.143	-0.0
C	30.187	0.098	-0.0
C	28.976	0.783	-0.0
C	35.961	0.975	-0.0
C	35.546	2.293	-0.0
O	34.877	0.144	-0.0
H	36.192	3.158	-0.0
H	33.446	3.109	-0.0
C	34.136	2.274	-0.0
C	33.757	0.942	-0.0
C	39.451	0.387	-0.0
C	39.071	-0.944	-0.0
O	38.332	1.187	-0.0
H	39.76	-1.779	-0.0
H	37.013	-1.826	-0.0
C	37.66	-0.961	-0.0
C	37.247	0.358	-0.0
C	44.235	0.541	-0.001
C	43.024	1.225	-0.001
N	43.947	-0.82	-0.001
C	42.528	-1.05	-0.001
C	42.46	2.558	-0.0
O	42.959	3.68	-0.0
O	42.029	-2.172	-0.001
C	40.11	3.445	-0.0
C	44.876	-1.939	-0.001
H	45.511	-1.927	-0.891
H	44.262	-2.841	-0.001
H	45.511	-1.927	0.89
H	39.474	3.43	0.889
H	39.474	3.43	-0.89
H	40.722	4.349	-0.0
N	41.041	2.327	-0.0
C	41.966	0.283	-0.001
C	40.755	0.967	-0.0
C	47.74	1.159	-0.001
C	47.325	2.477	-0.0
O	46.655	0.328	-0.001
H	47.971	3.343	-0.0
H	45.225	3.293	-0.0
C	45.915	2.458	-0.001
C	45.535	1.126	-0.001
C	51.23	0.571	-0.0
C	50.85	-0.76	-0.001
O	50.111	1.371	-0.0
H	51.539	-1.595	-0.001
H	48.792	-1.642	-0.001
C	49.439	-0.777	-0.001
C	49.026	0.542	-0.001
C	56.014	0.725	-0.001
C	54.802	1.41	-0.001
N	55.726	-0.636	-0.001
C	54.307	-0.866	-0.001
C	54.239	2.742	-0.0
O	54.738	3.864	-0.0
O	53.808	-1.988	-0.001
C	51.889	3.629	-0.0
C	56.655	-1.754	-0.001
H	57.29	-1.742	-0.891
H	56.041	-2.657	-0.001
H	57.29	-1.743	0.89
H	51.253	3.615	0.889
H	51.253	3.615	-0.89
H	52.501	4.533	-0.0
N	52.82	2.511	-0.0
C	53.745	0.467	-0.001
C	52.534	1.151	-0.0
C	59.519	1.344	-0.001
C	59.104	2.661	-0.001
O	58.434	0.513	-0.001
H	59.75	3.527	-0.001
H	57.004	3.477	-0.001
C	57.694	2.643	-0.001
C	57.314	1.311	-0.001
C	63.009	0.755	-0.001
C	62.629	-0.576	-0.001
O	61.89	1.555	-0.001
H	63.318	-1.411	-0.001
H	60.571	-1.457	-0.001
C	61.218	-0.593	-0.001
C	60.805	0.726	-0.001
C	67.793	0.91	-0.001
C	66.581	1.594	-0.001
N	67.505	-0.452	-0.001
C	66.086	-0.682	-0.001
C	66.018	2.926	-0.001
O	66.517	4.048	-0.001
O	65.587	-1.803	-0.001
C	63.668	3.813	-0.0
C	68.434	-1.57	-0.001
H	69.069	-1.558	-0.891
H	67.82	-2.473	-0.001
H	69.069	-1.558	0.89
H	63.032	3.799	0.889
H	63.032	3.799	-0.89
H	64.28	4.717	-0.0
N	64.599	2.696	-0.0
C	65.524	0.651	-0.001
C	64.313	1.336	-0.0
C	71.298	1.528	-0.001
C	70.883	2.845	-0.001
O	70.213	0.697	-0.001
H	71.529	3.711	-0.001
H	68.783	3.661	-0.001
C	69.472	2.827	-0.001
C	69.093	1.495	-0.001
C	74.788	0.939	-0.001
C	74.407	-0.391	-0.001
O	73.669	1.74	-0.001
H	75.097	-1.226	-0.001
H	72.349	-1.273	-0.001
C	72.997	-0.408	-0.001
C	72.584	0.91	-0.001
C	79.572	1.094	-0.001
C	78.36	1.778	-0.001
N	79.284	-0.268	-0.001
C	77.865	-0.498	-0.001
C	77.797	3.111	-0.001
O	78.295	4.232	-0.001
O	77.366	-1.619	-0.001
C	75.447	3.997	-0.0
C	80.212	-1.386	-0.001
H	80.848	-1.374	-0.891
H	79.599	-2.289	-0.001
H	80.848	-1.374	0.89
H	74.811	3.983	0.889
H	74.811	3.983	-0.89
H	76.059	4.901	-0.0
N	76.378	2.88	-0.001
C	77.303	0.835	-0.001
C	76.091	1.52	-0.001
C	83.077	1.712	-0.001
C	82.662	3.03	-0.001
O	81.992	0.881	-0.001
H	83.308	3.895	-0.001
H	80.562	3.846	-0.001
C	81.251	3.011	-0.001
C	80.872	1.679	-0.001
C	86.567	1.124	-0.001
C	86.186	-0.207	-0.001
O	85.448	1.924	-0.001
H	86.876	-1.042	-0.001
H	84.128	-1.089	-0.001
C	84.776	-0.224	-0.001
C	84.363	1.095	-0.001
C	91.351	1.278	-0.001
C	90.139	1.962	-0.001
N	91.063	-0.083	-0.001
C	89.644	-0.313	-0.001
C	89.575	3.295	-0.001
O	90.074	4.417	-0.001
O	89.145	-1.435	-0.001
C	87.226	4.182	-0.0
C	91.991	-1.202	-0.001
H	92.627	-1.19	-0.891
H	91.378	-2.104	-0.001
H	92.626	-1.19	0.89
H	86.59	4.167	0.889
H	86.59	4.168	-0.89
H	87.837	5.086	-0.0
N	88.156	3.064	-0.001
C	89.082	1.02	-0.001
C	87.87	1.704	-0.001
C	94.856	1.896	-0.001
C	94.441	3.214	-0.001
O	93.771	1.066	-0.001
H	95.087	4.08	-0.001
H	92.341	4.03	-0.001
C	93.03	3.195	-0.001
C	92.651	1.863	-0.001
C	98.346	1.308	-0.001
C	97.965	-0.023	-0.001
O	97.226	2.108	-0.001
H	98.655	-0.858	-0.001
H	95.907	-0.904	-0.001
C	96.555	-0.04	-0.001
C	96.142	1.279	-0.001
C	103.13	1.462	-0.001
C	101.918	2.147	-0.001
N	102.842	0.101	-0.001
C	101.423	-0.129	-0.001
C	101.354	3.479	-0.001
O	101.853	4.601	-0.001
O	100.924	-1.251	-0.001
C	99.005	4.366	-0.001
C	103.77	-1.017	-0.001
H	104.406	-1.005	-0.891
H	103.157	-1.92	-0.001
H	104.405	-1.006	0.89
H	98.369	4.352	0.889
H	98.369	4.352	-0.89
H	99.616	5.27	-0.001
N	99.935	3.248	-0.001
C	100.861	1.204	-0.001
C	99.649	1.888	-0.001
C	106.635	2.081	-0.001
C	106.22	3.398	-0.001
O	105.55	1.25	-0.001
H	106.866	4.264	-0.001
H	104.12	4.214	-0.001
C	104.809	3.38	-0.001
C	104.43	2.048	-0.001
C	110.125	1.492	-0.001
C	109.744	0.161	-0.001
O	109.005	2.292	-0.001
H	110.434	-0.674	-0.001
H	107.686	-0.72	-0.001
C	108.334	0.144	-0.001
C	107.921	1.463	-0.001
H	-7.347	-0.216	0.0
H	111.147	1.849	-0.001
