322
DPP2T_10
C	-3.075	-0.52	0.0
C	-4.2	0.309	-0.0
N	-3.545	-1.833	0.0
C	-4.979	-1.881	0.0
C	-4.596	1.699	-0.0
O	-3.97	2.757	-0.0
O	-5.605	-2.938	0.0
C	-6.788	2.889	-0.0
C	-2.788	-3.072	0.0
H	-3.527	-3.876	0.0
H	-2.163	-3.162	0.894
H	-2.163	-3.162	-0.894
H	-7.414	2.977	0.893
H	-7.414	2.977	-0.894
H	-6.051	3.694	-0.0
N	-6.03	1.65	-0.0
C	-5.373	-0.49	0.0
C	-6.498	0.338	-0.0
C	0.815	0.152	-0.0
C	0.126	1.357	-0.0
S	-0.311	-1.19	0.0
H	-1.972	2.047	-0.0
H	0.625	2.32	-0.0
C	-1.271	1.218	-0.0
C	-1.701	-0.107	-0.0
C	4.749	0.18	0.0
C	4.32	-1.144	-0.0
S	3.36	1.264	0.0
H	2.422	-2.246	-0.0
H	5.021	-1.974	-0.0
C	2.922	-1.283	-0.0
C	2.235	-0.077	-0.0
C	9.548	-0.271	0.0
C	8.423	0.558	0.0
N	9.079	-1.584	0.0
C	7.645	-1.632	0.0
C	8.028	1.948	-0.0
O	8.654	3.006	-0.0
O	7.018	-2.689	0.0
C	5.835	3.138	-0.0
C	9.835	-2.823	0.0
H	9.097	-3.627	0.0
H	10.461	-2.913	0.895
H	10.461	-2.913	-0.894
H	5.21	3.226	0.894
H	5.21	3.226	-0.894
H	6.573	3.943	-0.0
N	6.593	1.899	-0.0
C	7.25	-0.241	0.0
C	6.126	0.587	0.0
C	13.438	0.401	0.0
C	12.749	1.606	-0.0
S	12.313	-0.941	0.0
H	10.651	2.296	-0.0
H	13.249	2.569	-0.0
C	11.352	1.467	-0.0
C	10.922	0.142	0.0
C	17.372	0.429	0.0
C	16.943	-0.895	0.0
S	15.983	1.513	0.0
H	15.046	-1.997	-0.0
H	17.645	-1.725	-0.0
C	15.546	-1.034	-0.0
C	14.858	0.172	0.0
C	22.172	-0.022	0.0
C	21.047	0.807	0.0
N	21.702	-1.335	0.0
C	20.268	-1.383	0.0
C	20.651	2.197	0.0
O	21.277	3.255	-0.0
O	19.642	-2.44	0.001
C	18.459	3.387	-0.0
C	22.459	-2.574	0.001
H	21.72	-3.378	0.001
H	23.084	-2.664	0.895
H	23.084	-2.664	-0.894
H	17.833	3.475	0.894
H	17.833	3.475	-0.894
H	19.196	4.192	-0.0
N	19.217	2.148	0.0
C	19.874	0.008	0.0
C	18.75	0.836	0.0
C	26.062	0.65	0.0
C	25.373	1.855	0.0
S	24.936	-0.692	0.0
H	23.275	2.545	-0.0
H	25.872	2.818	-0.0
C	23.976	1.716	0.0
C	23.546	0.391	0.0
C	29.996	0.678	0.0
C	29.567	-0.646	0.0
S	28.607	1.762	0.0
H	27.669	-1.748	0.0
H	30.268	-1.476	0.0
C	28.17	-0.785	0.0
C	27.482	0.421	0.0
C	34.795	0.227	0.0
C	33.671	1.056	0.0
N	34.326	-1.086	0.001
C	32.892	-1.134	0.001
C	33.275	2.446	0.0
O	33.901	3.504	0.0
O	32.265	-2.191	0.001
C	31.083	3.636	0.0
C	35.083	-2.325	0.001
H	34.344	-3.129	0.001
H	35.708	-2.415	0.895
H	35.708	-2.415	-0.894
H	30.457	3.724	0.894
H	30.457	3.724	-0.894
H	31.82	4.441	-0.0
N	31.84	2.397	0.0
C	32.498	0.257	0.0
C	31.373	1.085	0.0
C	38.685	0.899	0.0
C	37.996	2.104	0.0
S	37.56	-0.443	0.0
H	35.898	2.794	0.0
H	38.496	3.067	0.0
C	36.599	1.965	0.0
C	36.169	0.64	0.0
C	42.62	0.927	0.0
C	42.19	-0.397	0.0
S	41.23	2.011	0.0
H	40.293	-1.499	0.0
H	42.892	-1.227	0.0
C	40.793	-0.536	0.0
C	40.105	0.67	0.0
C	47.419	0.476	0.001
C	46.294	1.305	0.0
N	46.949	-0.837	0.001
C	45.515	-0.885	0.001
C	45.899	2.695	0.0
O	46.525	3.753	0.0
O	44.889	-1.942	0.001
C	43.706	3.885	0.0
C	47.706	-2.076	0.001
H	46.968	-2.88	0.001
H	48.331	-2.166	0.895
H	48.331	-2.166	-0.893
H	43.08	3.973	0.894
H	43.08	3.973	-0.894
H	44.443	4.69	0.0
N	44.464	2.646	0.0
C	45.121	0.506	0.001
C	43.997	1.334	0.0
C	51.309	1.148	0.0
C	50.62	2.353	0.0
S	50.183	-0.194	0.001
H	48.522	3.043	0.0
H	51.119	3.316	0.0
C	49.223	2.214	0.0
C	48.793	0.889	0.0
C	55.243	1.176	0.001
C	54.814	-0.148	0.0
S	53.854	2.26	0.001
H	52.916	-1.25	0.0
H	55.515	-0.978	0.0
C	53.417	-0.287	0.0
C	52.729	0.918	0.0
C	60.042	0.725	0.001
C	58.918	1.554	0.001
N	59.573	-0.588	0.001
C	58.139	-0.636	0.001
C	58.522	2.944	0.0
O	59.148	4.002	0.0
O	57.512	-1.693	0.001
C	56.33	4.134	0.0
C	60.33	-1.827	0.001
H	59.591	-2.631	0.001
H	60.955	-1.917	0.895
H	60.955	-1.917	-0.893
H	55.704	4.222	0.894
H	55.704	4.222	-0.893
H	57.067	4.939	0.0
N	57.088	2.895	0.0
C	57.745	0.755	0.001
C	56.62	1.583	0.001
C	63.932	1.397	0.001
C	63.243	2.602	0.0
S	62.807	0.055	0.001
H	61.145	3.292	0.0
H	63.743	3.565	0.0
C	61.847	2.463	0.0
C	61.417	1.138	0.001
C	67.867	1.425	0.001
C	67.437	0.101	0.001
S	66.478	2.509	0.001
H	65.54	-1.001	0.0
H	68.139	-0.729	0.0
C	66.04	-0.038	0.001
C	65.352	1.167	0.001
C	72.666	0.974	0.001
C	71.541	1.803	0.001
N	72.197	-0.339	0.001
C	70.763	-0.387	0.001
C	71.146	3.193	0.001
O	71.772	4.251	0.0
O	70.136	-1.444	0.001
C	68.953	4.383	0.0
C	72.953	-1.578	0.001
H	72.215	-2.382	0.001
H	73.578	-1.668	0.895
H	73.578	-1.668	-0.893
H	68.327	4.471	0.894
H	68.327	4.471	-0.893
H	69.691	5.188	0.0
N	69.711	3.144	0.001
C	70.368	1.004	0.001
C	69.244	1.832	0.001
C	76.556	1.646	0.001
C	75.867	2.851	0.001
S	75.43	0.304	0.001
H	73.769	3.541	0.001
H	76.367	3.814	0.0
C	74.47	2.712	0.001
C	74.04	1.387	0.001
C	80.49	1.674	0.001
C	80.061	0.35	0.001
S	79.101	2.758	0.001
H	78.164	-0.752	0.001
H	80.762	-0.48	0.001
C	78.664	0.211	0.001
C	77.976	1.416	0.001
C	85.29	1.223	0.001
C	84.165	2.052	0.001
N	84.82	-0.09	0.001
C	83.386	-0.138	0.001
C	83.769	3.442	0.001
O	84.395	4.5	0.001
O	82.76	-1.195	0.001
C	81.577	4.632	0.001
C	85.577	-1.329	0.001
H	84.838	-2.133	0.001
H	86.202	-1.419	0.895
H	86.202	-1.419	-0.893
H	80.951	4.72	0.894
H	80.951	4.72	-0.893
H	82.314	5.437	0.0
N	82.335	3.393	0.001
C	82.992	1.253	0.001
C	81.867	2.081	0.001
C	89.18	1.895	0.001
C	88.491	3.1	0.001
S	88.054	0.553	0.001
H	86.393	3.79	0.001
H	88.99	4.063	0.001
C	87.094	2.961	0.001
C	86.664	1.636	0.001
C	93.114	1.923	0.001
C	92.685	0.599	0.001
S	91.725	3.007	0.001
H	90.787	-0.503	0.001
H	93.386	-0.231	0.001
C	91.287	0.46	0.001
C	90.6	1.665	0.001
C	97.913	1.472	0.001
C	96.788	2.301	0.001
N	97.444	0.159	0.001
C	96.01	0.111	0.001
C	96.393	3.691	0.001
O	97.019	4.749	0.001
O	95.383	-0.946	0.001
C	94.2	4.881	0.001
C	98.2	-1.08	0.001
H	97.462	-1.884	0.001
H	98.826	-1.17	0.896
H	98.826	-1.17	-0.893
H	93.575	4.969	0.894
H	93.575	4.969	-0.893
H	94.938	5.686	0.001
N	94.958	3.642	0.001
C	95.615	1.502	0.001
C	94.491	2.33	0.001
C	101.803	2.144	0.001
C	101.114	3.349	0.001
S	100.678	0.802	0.001
H	99.016	4.039	0.001
H	101.614	4.312	0.001
C	99.717	3.21	0.001
C	99.287	1.885	0.001
C	105.737	2.172	0.001
C	105.308	0.848	0.001
S	104.348	3.256	0.001
H	103.411	-0.254	0.001
H	106.01	0.018	0.001
C	103.911	0.709	0.001
C	103.223	1.914	0.001
C	110.537	1.721	0.001
C	109.412	2.55	0.001
N	110.067	0.408	0.001
C	108.633	0.36	0.001
C	109.016	3.94	0.001
O	109.642	4.998	0.001
O	108.007	-0.697	0.001
C	106.824	5.13	0.001
C	110.824	-0.831	0.001
H	110.085	-1.635	0.002
H	111.449	-0.921	0.896
H	111.449	-0.921	-0.893
H	106.198	5.218	0.895
H	106.198	5.218	-0.893
H	107.561	5.935	0.001
N	107.582	3.891	0.001
C	108.239	1.751	0.001
C	107.115	2.579	0.001
C	114.427	2.393	0.001
C	113.738	3.598	0.001
S	113.301	1.051	0.001
H	111.64	4.288	0.001
H	114.237	4.561	0.001
C	112.341	3.459	0.001
C	111.911	2.134	0.001
C	118.361	2.421	0.001
C	117.932	1.097	0.001
S	116.972	3.505	0.001
H	116.034	-0.005	0.001
H	118.633	0.267	0.001
C	116.535	0.958	0.001
C	115.847	2.163	0.001
H	-7.532	0.022	-0.0
H	119.396	2.738	0.001
