392
DPP3T_10
C	-5.012	-0.549	-0.0
C	-6.056	0.38	-0.0
N	-5.6	-1.813	-0.0
C	-7.032	-1.73	-0.0
C	-6.322	1.8	0.0
O	-5.601	2.796	0.0
O	-7.753	-2.725	-0.0
C	-8.396	3.186	0.0
C	-4.96	-3.116	-0.0
H	-5.77	-3.849	-0.0
H	-4.346	-3.263	0.894
H	-4.346	-3.263	-0.894
H	-9.011	3.331	0.894
H	-9.011	3.331	-0.894
H	-7.587	3.92	0.0
N	-7.755	1.883	0.0
C	-7.297	-0.309	-0.0
C	-8.341	0.619	0.0
C	-1.075	-0.238	-0.0
C	-1.65	1.024	-0.0
S	-2.32	-1.471	-0.0
H	-3.676	1.905	0.0
H	-1.064	1.937	-0.0
C	-3.054	1.015	-0.0
C	-3.606	-0.264	-0.0
C	2.847	-0.563	-0.0
C	2.305	-1.837	-0.0
S	1.566	0.64	-0.0
H	0.312	-2.771	-0.0
H	2.912	-2.736	-0.0
C	0.895	-1.856	-0.0
C	0.318	-0.597	-0.0
C	6.759	-0.121	-0.0
C	6.174	1.142	-0.0
S	5.508	-1.364	0.0
H	4.158	2.008	-0.0
H	6.771	2.049	-0.0
C	4.769	1.112	-0.0
C	4.231	-0.166	-0.0
C	11.46	0.926	0.0
C	10.45	-0.039	0.0
N	10.827	2.169	0.0
C	9.398	2.034	0.0
C	10.235	-1.468	0.0
O	10.991	-2.437	0.0
O	8.642	3.003	0.0
C	8.213	-2.927	-0.0
C	11.419	3.494	0.0
H	10.583	4.197	0.0
H	12.028	3.663	-0.894
H	12.027	3.663	0.895
H	7.603	-3.095	-0.894
H	7.603	-3.095	0.894
H	9.047	-3.632	0.0
N	8.806	-1.602	0.0
C	9.184	0.604	0.0
C	8.175	-0.361	0.0
C	15.405	0.758	0.001
C	14.876	-0.524	0.001
S	14.117	1.945	0.001
H	12.883	-1.478	0.0
H	15.495	-1.415	0.001
C	13.472	-0.565	0.001
C	12.875	0.692	0.0
C	19.313	1.223	0.001
C	18.725	2.477	0.001
S	18.076	-0.024	0.001
H	16.701	3.339	0.001
H	19.3	3.397	0.001
C	17.316	2.446	0.001
C	16.785	1.166	0.001
C	23.238	0.922	0.001
C	22.699	-0.36	0.001
S	21.944	2.12	0.001
H	20.715	-1.299	0.001
H	23.328	-1.246	0.001
C	21.294	-0.381	0.001
C	20.71	0.877	0.001
C	27.97	0.257	0.001
C	26.926	1.186	0.001
N	27.382	-1.007	0.001
C	25.949	-0.924	0.001
C	26.66	2.606	0.001
O	27.381	3.602	0.001
O	25.229	-1.919	0.001
C	24.586	3.992	0.001
C	28.021	-2.31	0.001
H	27.212	-3.043	0.001
H	28.636	-2.457	0.895
H	28.636	-2.457	-0.893
H	23.971	4.137	0.895
H	23.971	4.137	-0.892
H	25.395	4.726	0.001
N	25.227	2.689	0.001
C	25.684	0.497	0.001
C	24.641	1.425	0.001
C	31.907	0.568	0.001
C	31.332	1.83	0.001
S	30.662	-0.665	0.001
H	29.306	2.711	0.001
H	31.918	2.743	0.001
C	29.927	1.821	0.001
C	29.376	0.542	0.001
C	35.829	0.243	0.001
C	35.287	-1.031	0.001
S	34.548	1.446	0.001
H	33.294	-1.965	0.001
H	35.894	-1.929	0.001
C	33.877	-1.05	0.001
C	33.3	0.209	0.001
C	39.741	0.685	0.001
C	39.156	1.948	0.001
S	38.49	-0.558	0.001
H	37.139	2.814	0.001
H	39.753	2.855	0.001
C	37.751	1.918	0.001
C	37.213	0.64	0.001
C	44.442	1.733	0.002
C	43.432	0.767	0.001
N	43.808	2.975	0.002
C	42.38	2.84	0.001
C	43.217	-0.662	0.001
O	43.973	-1.631	0.001
O	41.624	3.809	0.001
C	41.194	-2.121	0.001
C	44.4	4.3	0.002
H	43.565	5.004	0.002
H	45.009	4.469	-0.892
H	45.009	4.469	0.896
H	40.585	-2.289	-0.893
H	40.585	-2.289	0.895
H	42.029	-2.826	0.001
N	41.788	-0.796	0.001
C	42.166	1.411	0.001
C	41.157	0.445	0.001
C	48.387	1.564	0.002
C	47.858	0.282	0.002
S	47.099	2.751	0.002
H	45.865	-0.672	0.002
H	48.477	-0.609	0.002
C	46.454	0.241	0.002
C	45.857	1.498	0.002
C	52.295	2.029	0.002
C	51.707	3.283	0.002
S	51.058	0.782	0.002
H	49.682	4.145	0.002
H	52.282	4.203	0.002
C	50.298	3.252	0.002
C	49.766	1.973	0.002
C	56.22	1.729	0.002
C	55.681	0.446	0.002
S	54.926	2.926	0.002
H	53.697	-0.493	0.003
H	56.31	-0.44	0.003
C	54.276	0.425	0.002
C	53.692	1.683	0.002
C	60.952	1.063	0.002
C	59.908	1.992	0.002
N	60.364	-0.201	0.002
C	58.931	-0.118	0.002
C	59.642	3.412	0.002
O	60.362	4.408	0.002
O	58.211	-1.113	0.002
C	57.568	4.798	0.003
C	61.003	-1.504	0.002
H	60.194	-2.237	0.002
H	61.618	-1.651	0.896
H	61.618	-1.651	-0.892
H	56.953	4.943	0.896
H	56.953	4.943	-0.891
H	58.376	5.532	0.003
N	58.209	3.495	0.002
C	58.666	1.303	0.002
C	57.623	2.231	0.002
C	64.888	1.374	0.002
C	64.314	2.636	0.002
S	63.644	0.141	0.002
H	62.288	3.517	0.002
H	64.9	3.549	0.002
C	62.909	2.627	0.002
C	62.358	1.348	0.002
C	68.811	1.049	0.002
C	68.268	-0.225	0.002
S	67.53	2.252	0.002
H	66.276	-1.159	0.002
H	68.876	-1.123	0.002
C	66.859	-0.244	0.002
C	66.282	1.015	0.002
C	72.723	1.491	0.002
C	72.137	2.754	0.002
S	71.472	0.248	0.002
H	70.121	3.62	0.002
H	72.734	3.662	0.002
C	70.733	2.725	0.002
C	70.195	1.446	0.002
C	77.423	2.539	0.003
C	76.413	1.573	0.003
N	76.79	3.781	0.003
C	75.362	3.646	0.003
C	76.199	0.144	0.003
O	76.955	-0.825	0.003
O	74.606	4.615	0.003
C	74.176	-1.315	0.002
C	77.382	5.107	0.003
H	76.547	5.81	0.003
H	77.991	5.276	-0.891
H	77.991	5.275	0.897
H	73.567	-1.483	-0.891
H	73.567	-1.483	0.896
H	75.01	-2.02	0.002
N	74.77	0.01	0.002
C	75.148	2.217	0.003
C	74.138	1.251	0.002
C	81.369	2.37	0.003
C	80.84	1.088	0.003
S	80.08	3.557	0.003
H	78.847	0.134	0.003
H	81.458	0.197	0.003
C	79.436	1.047	0.003
C	78.839	2.304	0.003
C	85.277	2.836	0.003
C	84.689	4.089	0.003
S	84.04	1.588	0.003
H	82.664	4.951	0.003
H	85.264	5.009	0.004
C	83.28	4.058	0.003
C	82.748	2.779	0.003
C	89.202	2.535	0.004
C	88.663	1.252	0.004
S	87.907	3.732	0.003
H	86.679	0.313	0.004
H	89.292	0.366	0.004
C	87.258	1.231	0.004
C	86.674	2.489	0.003
C	93.934	1.87	0.004
C	92.89	2.798	0.004
N	93.345	0.605	0.003
C	91.913	0.689	0.004
C	92.624	4.218	0.004
O	93.344	5.214	0.004
O	91.192	-0.307	0.003
C	90.55	5.604	0.004
C	93.985	-0.698	0.003
H	93.175	-1.431	0.003
H	94.599	-0.845	0.898
H	94.599	-0.845	-0.891
H	89.935	5.749	0.897
H	89.935	5.749	-0.89
H	91.358	6.338	0.004
N	91.19	4.301	0.004
C	91.648	2.109	0.004
C	90.604	3.038	0.004
C	97.87	2.18	0.003
C	97.295	3.442	0.004
S	96.626	0.947	0.003
H	95.269	4.323	0.004
H	97.882	4.355	0.004
C	95.891	3.433	0.004
C	95.34	2.154	0.004
C	101.793	1.856	0.003
C	101.25	0.582	0.003
S	100.512	3.058	0.004
H	99.258	-0.353	0.003
H	101.858	-0.317	0.003
C	99.841	0.562	0.003
C	99.264	1.821	0.003
C	105.704	2.298	0.004
C	105.119	3.56	0.003
S	104.454	1.055	0.004
H	103.103	4.426	0.003
H	105.716	4.468	0.003
C	103.715	3.531	0.003
C	103.176	2.252	0.003
C	110.405	3.345	0.004
C	109.395	2.379	0.004
N	109.772	4.587	0.004
C	108.343	4.452	0.004
C	109.181	0.95	0.004
O	109.936	-0.019	0.004
O	107.587	5.421	0.004
C	107.158	-0.509	0.004
C	110.364	5.913	0.004
H	109.529	6.616	0.004
H	110.973	6.082	-0.89
H	110.973	6.082	0.898
H	106.548	-0.676	-0.89
H	106.548	-0.677	0.897
H	107.992	-1.213	0.004
N	107.751	0.816	0.004
C	108.13	3.023	0.004
C	107.12	2.058	0.004
C	114.35	3.176	0.004
C	113.821	1.894	0.004
S	113.062	4.363	0.004
H	111.828	0.941	0.004
H	114.44	1.003	0.004
C	112.417	1.853	0.004
C	111.821	3.111	0.004
C	118.259	3.642	0.005
C	117.671	4.895	0.005
S	117.022	2.394	0.004
H	115.646	5.757	0.005
H	118.245	5.815	0.005
C	116.261	4.864	0.005
C	115.73	3.585	0.004
C	122.184	3.341	0.005
C	121.644	2.058	0.005
S	120.889	4.538	0.005
H	119.661	1.12	0.005
H	122.274	1.172	0.005
C	120.24	2.037	0.005
C	119.656	3.295	0.005
C	126.915	2.676	0.005
C	125.871	3.604	0.005
N	126.327	1.411	0.005
C	124.895	1.495	0.005
C	125.605	5.024	0.005
O	126.326	6.02	0.005
O	124.174	0.499	0.005
C	123.532	6.41	0.005
C	126.967	0.108	0.005
H	126.157	-0.625	0.005
H	127.581	-0.039	0.899
H	127.581	-0.039	-0.89
H	122.916	6.555	0.899
H	122.916	6.555	-0.889
H	124.34	7.144	0.005
N	124.172	5.107	0.005
C	124.63	2.915	0.005
C	123.586	3.844	0.005
C	130.852	2.986	0.005
C	130.277	4.248	0.005
S	129.607	1.753	0.005
H	128.251	5.129	0.005
H	130.863	5.161	0.005
C	128.873	4.239	0.005
C	128.322	2.961	0.005
C	134.775	2.662	0.005
C	134.232	1.388	0.005
S	133.493	3.864	0.005
H	132.24	0.453	0.004
H	134.839	0.489	0.004
C	132.822	1.368	0.005
C	132.245	2.627	0.005
C	138.686	3.104	0.005
C	138.101	4.366	0.005
S	137.435	1.861	0.005
H	136.085	5.233	0.004
H	138.698	5.274	0.005
C	136.697	4.337	0.005
C	136.158	3.058	0.005
C	143.387	4.151	0.005
C	142.377	3.185	0.005
N	142.754	5.393	0.005
C	141.325	5.258	0.005
C	142.162	1.756	0.005
O	142.918	0.787	0.005
O	140.569	6.227	0.005
C	140.14	0.297	0.005
C	143.346	6.719	0.005
H	142.51	7.422	0.005
H	143.955	6.888	-0.889
H	143.954	6.888	0.899
H	139.53	0.13	-0.889
H	139.53	0.13	0.898
H	140.974	-0.407	0.005
N	140.733	1.622	0.005
C	141.111	3.829	0.005
C	140.102	2.864	0.005
C	147.332	3.982	0.005
C	146.803	2.7	0.005
S	146.044	5.17	0.005
H	144.81	1.747	0.005
H	147.422	1.809	0.005
C	145.399	2.659	0.005
C	144.802	3.917	0.005
C	151.241	4.448	0.006
C	150.652	5.701	0.006
S	150.003	3.2	0.006
H	148.628	6.563	0.006
H	151.227	6.621	0.006
C	149.243	5.67	0.006
C	148.712	4.391	0.006
C	155.165	4.147	0.006
C	154.626	2.864	0.006
S	153.871	5.344	0.006
H	152.642	1.926	0.006
H	155.255	1.979	0.006
C	153.222	2.843	0.006
C	152.637	4.101	0.006
H	-9.401	0.399	0.0
H	156.223	4.376	0.006
