472
DPPBTZFF_10
C	-4.492	0.207	-0.0
C	-4.94	-1.11	-0.0
S	-5.857	1.313	0.0
H	-6.865	-2.173	-0.0
H	-4.255	-1.952	-0.0
C	-6.34	-1.227	-0.0
C	-7.01	-0.011	0.0
C	0.302	-0.316	-0.0
C	-0.811	0.531	-0.0
N	-0.188	-1.62	-0.0
C	-1.622	-1.647	-0.0
C	-1.185	1.928	-0.0
O	-0.542	2.976	-0.0
O	-2.265	-2.694	-0.0
C	-3.356	3.153	-0.0
C	0.549	-2.872	-0.0
H	-0.202	-3.664	-0.0
H	1.174	-2.97	0.893
H	1.174	-2.97	-0.894
H	-3.981	3.252	0.893
H	-3.981	3.252	-0.893
H	-2.605	3.945	-0.0
N	-2.619	1.902	-0.0
C	-1.996	-0.249	-0.0
C	-3.109	0.597	-0.0
C	4.204	0.293	-0.0
C	3.531	1.51	-0.0
S	3.051	-1.032	-0.0
H	1.447	2.233	-0.0
H	4.054	2.456	-0.0
C	2.133	1.392	-0.0
C	1.684	0.074	-0.0
C	8.603	-0.365	0.0
C	8.007	0.94	-0.0
C	7.65	-1.373	0.0
N	6.377	2.487	-0.0
N	7.6	3.0	-0.001
N	8.614	2.147	-0.0
C	7.823	4.437	0.001
F	8.03	-2.666	0.0
F	5.503	-2.281	0.0
H	6.847	4.919	-0.008
H	8.379	4.72	0.898
H	8.395	4.718	-0.887
C	6.251	-1.16	0.0
C	6.596	1.156	-0.0
C	5.64	0.085	-0.0
C	12.379	-1.55	0.0
C	12.341	-0.158	0.0
S	10.746	-2.2	0.0
H	10.82	1.428	0.0
H	13.246	0.442	0.0
C	11.04	0.369	0.0
C	10.039	-0.593	0.0
C	17.111	-2.475	0.0
C	15.797	-2.952	0.0
N	17.031	-1.083	0.0
C	15.669	-0.632	0.0
C	15.025	-4.175	0.0
O	15.327	-5.367	0.0
O	15.367	0.559	0.0
C	12.588	-4.7	0.0
C	18.107	-0.107	0.001
H	17.625	0.873	0.001
H	18.733	-0.199	-0.893
H	18.733	-0.199	0.894
H	11.962	-4.608	-0.893
H	11.962	-4.608	0.893
H	13.07	-5.68	0.0
N	13.663	-3.724	0.0
C	14.898	-1.855	0.0
C	13.583	-2.333	0.0
C	20.656	-4.215	0.0
C	19.652	-5.177	0.001
S	19.949	-2.608	0.0
H	17.447	-5.248	0.001
H	19.871	-6.236	0.001
C	18.352	-4.649	0.001
C	18.315	-3.257	0.0
C	25.052	-4.893	0.001
C	24.096	-5.963	0.001
C	24.441	-3.648	0.0
N	22.079	-6.956	0.001
N	23.095	-7.808	0.001
N	24.316	-7.295	0.001
C	22.881	-9.247	-0.0
F	25.189	-2.527	0.0
F	22.662	-2.143	0.0
H	21.805	-9.417	0.009
H	23.328	-9.682	-0.897
H	23.344	-9.685	0.887
C	23.043	-3.435	0.0
C	22.684	-5.75	0.001
C	22.089	-4.443	0.001
C	29.009	-4.884	0.001
C	28.56	-6.201	0.0
S	27.643	-3.778	0.001
H	26.636	-7.264	0.0
H	29.246	-7.043	0.0
C	27.161	-6.318	0.0
C	26.491	-5.102	0.001
C	33.803	-5.407	0.0
C	32.69	-4.56	0.0
N	33.313	-6.712	0.0
C	31.879	-6.738	0.0
C	32.316	-3.163	0.0
O	32.959	-2.116	0.0
O	31.236	-7.786	0.0
C	30.145	-1.938	0.001
C	34.05	-7.963	0.0
H	33.299	-8.756	0.0
H	34.675	-8.062	0.894
H	34.675	-8.062	-0.893
H	29.52	-1.84	0.894
H	29.52	-1.84	-0.893
H	30.896	-1.146	0.0
N	30.882	-3.19	0.0
C	31.505	-5.341	0.0
C	30.392	-4.494	0.0
C	37.704	-4.798	0.001
C	37.032	-3.582	0.0
S	36.552	-6.123	0.001
H	34.948	-2.859	0.0
H	37.555	-2.635	0.0
C	35.634	-3.7	0.0
C	35.185	-5.018	0.0
C	42.103	-5.457	0.001
C	41.508	-4.151	0.0
C	41.151	-6.464	0.001
N	39.878	-2.604	0.0
N	41.101	-2.092	-0.0
N	42.114	-2.945	0.0
C	41.324	-0.655	0.001
F	41.531	-7.757	0.001
F	39.004	-7.373	0.001
H	40.348	-0.172	-0.008
H	41.88	-0.372	0.898
H	41.896	-0.373	-0.886
C	39.752	-6.252	0.001
C	40.097	-3.935	0.0
C	39.14	-5.006	0.001
C	45.88	-6.641	0.001
C	45.842	-5.25	0.001
S	44.247	-7.291	0.001
H	44.321	-3.664	0.001
H	46.747	-4.65	0.001
C	44.541	-4.723	0.001
C	43.54	-5.685	0.001
C	50.612	-7.566	0.001
C	49.298	-8.044	0.001
N	50.532	-6.174	0.001
C	49.17	-5.723	0.001
C	48.526	-9.267	0.001
O	48.828	-10.458	0.001
O	48.868	-4.532	0.001
C	46.089	-9.791	0.001
C	51.608	-5.199	0.001
H	51.126	-4.219	0.001
H	52.233	-5.29	-0.892
H	52.233	-5.29	0.894
H	45.463	-9.7	-0.893
H	45.463	-9.7	0.894
H	46.571	-10.771	0.001
N	47.164	-8.815	0.001
C	48.398	-6.947	0.001
C	47.084	-7.424	0.001
C	54.157	-9.307	0.001
C	53.153	-10.268	0.001
S	53.45	-7.699	0.001
H	50.948	-10.339	0.001
H	53.372	-11.327	0.001
C	51.853	-9.74	0.001
C	51.816	-8.348	0.001
C	58.553	-9.985	0.001
C	57.596	-11.055	0.001
C	57.942	-8.74	0.001
N	55.58	-12.047	0.002
N	56.596	-12.9	0.002
N	57.817	-12.386	0.002
C	56.381	-14.338	0.001
F	58.69	-7.618	0.001
F	56.162	-7.234	0.001
H	55.306	-14.509	0.01
H	56.829	-14.773	-0.897
H	56.844	-14.777	0.888
C	56.544	-8.527	0.001
C	56.184	-10.841	0.001
C	55.59	-9.534	0.001
C	62.51	-9.976	0.001
C	62.061	-11.293	0.001
S	61.144	-8.87	0.001
H	60.137	-12.355	0.001
H	62.747	-12.135	0.001
C	60.662	-11.41	0.001
C	59.992	-10.193	0.001
C	67.304	-10.498	0.001
C	66.191	-9.652	0.001
N	66.814	-11.803	0.001
C	65.38	-11.829	0.001
C	65.817	-8.255	0.001
O	66.459	-7.207	0.001
O	64.737	-12.877	0.001
C	63.646	-7.03	0.001
C	67.551	-13.055	0.001
H	66.8	-13.847	0.001
H	68.176	-13.153	0.894
H	68.176	-13.153	-0.892
H	63.021	-6.931	0.894
H	63.021	-6.931	-0.892
H	64.397	-6.237	0.001
N	64.383	-8.281	0.001
C	65.006	-10.432	0.001
C	63.893	-9.586	0.001
C	71.205	-9.889	0.001
C	70.533	-8.673	0.001
S	70.053	-11.215	0.001
H	68.448	-7.95	0.001
H	71.056	-7.727	0.001
C	69.134	-8.791	0.001
C	68.686	-10.109	0.001
C	75.604	-10.548	0.001
C	75.009	-9.242	0.001
C	74.651	-11.556	0.001
N	73.379	-7.696	0.001
N	74.602	-7.183	0.0
N	75.615	-8.036	0.001
C	74.825	-5.746	0.002
F	75.032	-12.849	0.002
F	72.505	-12.464	0.002
H	73.848	-5.264	-0.007
H	75.381	-5.463	0.899
H	75.397	-5.465	-0.885
C	73.253	-11.343	0.001
C	73.597	-9.027	0.001
C	72.641	-10.098	0.001
C	79.38	-11.732	0.001
C	79.343	-10.341	0.001
S	77.748	-12.383	0.001
H	77.822	-8.755	0.001
H	80.248	-9.741	0.001
C	78.042	-9.814	0.001
C	77.04	-10.776	0.001
C	84.113	-12.657	0.002
C	82.798	-13.135	0.002
N	84.033	-11.266	0.002
C	82.671	-10.815	0.002
C	82.027	-14.358	0.001
O	82.329	-15.549	0.002
O	82.369	-9.624	0.002
C	79.59	-14.883	0.001
C	85.108	-10.29	0.002
H	84.627	-9.31	0.002
H	85.734	-10.382	-0.892
H	85.734	-10.382	0.895
H	78.964	-14.791	-0.892
H	78.964	-14.791	0.895
H	80.071	-15.862	0.001
N	80.665	-13.907	0.001
C	81.899	-12.038	0.002
C	80.585	-12.515	0.001
C	87.657	-14.398	0.002
C	86.654	-15.36	0.002
S	86.951	-12.79	0.002
H	84.449	-15.431	0.002
H	86.872	-16.419	0.002
C	85.354	-14.831	0.002
C	85.317	-13.44	0.002
C	92.053	-15.076	0.002
C	91.097	-16.146	0.002
C	91.443	-13.831	0.001
N	89.081	-17.139	0.002
N	90.097	-17.991	0.002
N	91.318	-17.478	0.002
C	89.882	-19.43	0.001
F	92.191	-12.71	0.001
F	89.663	-12.326	0.001
H	88.807	-19.6	0.01
H	90.329	-19.865	-0.896
H	90.345	-19.868	0.888
C	90.045	-13.618	0.001
C	89.685	-15.933	0.002
C	89.09	-14.626	0.002
C	96.011	-15.067	0.002
C	95.562	-16.384	0.002
S	94.645	-13.961	0.002
H	93.638	-17.447	0.002
H	96.247	-17.226	0.002
C	94.163	-16.501	0.002
C	93.493	-15.285	0.002
C	100.805	-15.59	0.002
C	99.691	-14.743	0.002
N	100.315	-16.895	0.002
C	98.88	-16.921	0.002
C	99.318	-13.346	0.002
O	99.96	-12.298	0.002
O	98.238	-17.968	0.002
C	97.147	-12.121	0.002
C	101.052	-18.146	0.001
H	100.301	-18.938	0.001
H	101.677	-18.245	0.895
H	101.677	-18.244	-0.892
H	96.522	-12.023	0.895
H	96.522	-12.023	-0.892
H	97.898	-11.329	0.002
N	97.884	-13.372	0.002
C	98.507	-15.524	0.002
C	97.394	-14.677	0.002
C	104.706	-14.981	0.002
C	104.034	-13.764	0.002
S	103.554	-16.306	0.002
H	101.949	-13.041	0.001
H	104.557	-12.818	0.002
C	102.635	-13.883	0.002
C	102.187	-15.201	0.002
C	109.105	-15.64	0.002
C	108.51	-14.334	0.002
C	108.152	-16.647	0.002
N	106.879	-12.787	0.001
N	108.103	-12.275	0.001
N	109.116	-13.128	0.001
C	108.325	-10.837	0.002
F	108.533	-17.94	0.002
F	106.006	-17.556	0.002
H	107.349	-10.355	-0.007
H	108.882	-10.555	0.899
H	108.898	-10.556	-0.885
C	106.754	-16.435	0.002
C	107.098	-14.118	0.002
C	106.142	-15.189	0.002
C	112.881	-16.824	0.002
C	112.844	-15.433	0.002
S	111.248	-17.474	0.002
H	111.322	-13.847	0.002
H	113.748	-14.832	0.002
C	111.542	-14.905	0.002
C	110.541	-15.868	0.002
C	117.614	-17.749	0.002
C	116.299	-18.227	0.002
N	117.534	-16.357	0.002
C	116.172	-15.906	0.002
C	115.528	-19.449	0.002
O	115.83	-20.641	0.002
O	115.87	-14.715	0.002
C	113.09	-19.974	0.002
C	118.609	-15.381	0.002
H	118.128	-14.402	0.002
H	119.235	-15.473	-0.891
H	119.235	-15.473	0.896
H	112.465	-19.883	-0.891
H	112.464	-19.883	0.895
H	113.572	-20.954	0.002
N	114.166	-18.998	0.002
C	115.4	-17.129	0.002
C	114.086	-17.607	0.002
C	121.158	-19.49	0.002
C	120.155	-20.451	0.002
S	120.451	-17.882	0.002
H	117.95	-20.522	0.002
H	120.373	-21.51	0.002
C	118.855	-19.923	0.002
C	118.818	-18.531	0.002
C	125.554	-20.167	0.002
C	124.598	-21.238	0.002
C	124.944	-18.922	0.002
N	122.582	-22.23	0.003
N	123.598	-23.083	0.003
N	124.818	-22.569	0.003
C	123.383	-24.521	0.002
F	125.691	-17.801	0.002
F	123.164	-17.417	0.002
H	122.308	-24.692	0.011
H	123.83	-24.956	-0.895
H	123.846	-24.96	0.889
C	123.546	-18.71	0.002
C	123.186	-21.024	0.002
C	122.591	-19.717	0.002
C	129.512	-20.158	0.002
C	129.063	-21.476	0.002
S	128.146	-19.052	0.002
H	127.139	-22.538	0.002
H	129.748	-22.318	0.002
C	127.663	-21.592	0.002
C	126.993	-20.376	0.002
C	134.306	-20.681	0.002
C	133.192	-19.835	0.002
N	133.816	-21.986	0.002
C	132.381	-22.012	0.002
C	132.819	-18.438	0.002
O	133.461	-17.39	0.002
O	131.739	-23.06	0.002
C	130.647	-17.213	0.002
C	134.553	-23.238	0.002
H	133.802	-24.03	0.002
H	135.177	-23.336	0.895
H	135.177	-23.336	-0.891
H	130.023	-17.114	0.896
H	130.023	-17.114	-0.891
H	131.399	-16.42	0.002
N	131.384	-18.464	0.002
C	132.008	-20.615	0.002
C	130.895	-19.769	0.002
C	138.207	-20.072	0.002
C	137.534	-18.856	0.002
S	137.054	-21.397	0.002
H	135.45	-18.133	0.002
H	138.058	-17.91	0.002
C	136.136	-18.974	0.002
C	135.687	-20.292	0.002
C	142.606	-20.731	0.002
C	142.011	-19.425	0.002
C	141.653	-21.738	0.003
N	140.38	-17.878	0.002
N	141.604	-17.366	0.001
N	142.617	-18.219	0.002
C	141.826	-15.929	0.003
F	142.034	-23.031	0.003
F	139.507	-22.647	0.003
H	140.85	-15.447	-0.006
H	142.382	-15.646	0.9
H	142.399	-15.648	-0.884
C	140.255	-21.526	0.002
C	140.599	-19.209	0.002
C	139.643	-20.281	0.002
C	146.382	-21.915	0.002
C	146.345	-20.524	0.003
S	144.749	-22.566	0.002
H	144.823	-18.938	0.002
H	147.249	-19.924	0.003
C	145.043	-19.997	0.002
C	144.042	-20.959	0.002
C	151.115	-22.84	0.003
C	149.8	-23.318	0.003
N	151.035	-21.449	0.003
C	149.673	-20.998	0.003
C	149.029	-24.541	0.003
O	149.331	-25.732	0.003
O	149.371	-19.807	0.003
C	146.591	-25.066	0.002
C	152.11	-20.473	0.003
H	151.628	-19.493	0.003
H	152.736	-20.564	-0.89
H	152.736	-20.565	0.896
H	145.965	-24.974	-0.891
H	145.965	-24.974	0.896
H	147.073	-26.045	0.003
N	147.667	-24.09	0.003
C	148.901	-22.221	0.003
C	147.587	-22.698	0.003
C	154.659	-24.581	0.003
C	153.656	-25.543	0.003
S	153.952	-22.973	0.003
H	151.45	-25.614	0.003
H	153.874	-26.601	0.003
C	152.355	-25.014	0.003
C	152.319	-23.622	0.003
C	159.055	-25.259	0.003
C	158.099	-26.329	0.003
C	158.445	-24.014	0.003
N	156.082	-27.321	0.003
N	157.098	-28.174	0.004
N	158.319	-27.661	0.003
C	156.884	-29.613	0.002
F	159.192	-22.892	0.002
F	156.665	-22.509	0.002
H	155.809	-29.783	0.011
H	157.331	-30.048	-0.895
H	157.347	-30.051	0.889
C	157.046	-23.801	0.003
C	156.687	-26.115	0.003
C	156.092	-24.809	0.003
H	-8.086	0.104	0.0
H	160.127	-25.406	0.003
