422
DPPBFF_10
C	4.741	-0.004	0.0
C	5.152	-1.332	0.0
S	6.139	1.061	-0.0
H	7.026	-2.455	0.0
H	4.445	-2.156	0.0
C	6.549	-1.482	0.0
C	7.254	-0.289	-0.0
C	-0.064	-0.394	0.0
C	1.071	0.422	0.0
N	0.389	-1.712	0.0
C	1.822	-1.777	0.0
C	1.482	1.808	0.0
O	0.868	2.873	0.0
O	2.436	-2.842	0.0
C	3.687	2.973	0.0
C	-0.382	-2.942	0.0
H	-1.01	-3.023	-0.893
H	0.346	-3.755	0.0
H	-1.01	-3.023	0.894
H	4.314	3.054	0.894
H	4.314	3.054	-0.893
H	2.959	3.786	0.0
N	2.915	1.742	0.0
C	2.234	-0.391	0.0
C	3.369	0.424	0.0
C	-3.949	0.32	0.0
C	-3.243	1.514	0.0
S	-2.834	-1.031	0.0
H	-1.139	2.186	0.0
H	-3.721	2.487	0.0
C	-1.847	1.363	0.0
C	-1.436	0.034	0.0
C	-8.285	-0.111	-0.0
C	-7.628	1.133	-0.0
C	-7.429	-1.23	-0.0
F	-8.37	2.266	-0.0
F	-5.314	-2.218	0.0
H	-7.825	-2.238	0.0
H	-5.86	2.287	-0.0
C	-6.255	1.279	-0.0
C	-6.056	-1.085	0.0
C	-5.399	0.159	0.0
C	-12.251	0.015	-0.0
C	-11.84	-1.314	-0.0
S	-10.854	1.08	-0.0
H	-9.966	-2.436	-0.0
H	-12.547	-2.137	0.0
C	-10.444	-1.464	-0.0
C	-9.738	-0.27	-0.0
C	-17.057	-0.375	0.0
C	-15.922	0.441	0.0
N	-16.603	-1.693	-0.0
C	-15.17	-1.758	-0.0
C	-15.51	1.827	0.0
O	-16.124	2.891	0.0
O	-14.556	-2.823	-0.0
C	-13.305	2.991	0.0
C	-17.375	-2.923	-0.0
H	-18.002	-3.004	-0.894
H	-16.646	-3.736	-0.0
H	-18.002	-3.004	0.893
H	-12.678	3.072	0.893
H	-12.678	3.073	-0.893
H	-14.034	3.804	0.0
N	-14.077	1.761	0.0
C	-14.758	-0.372	0.0
C	-13.624	0.443	-0.0
C	-20.941	0.339	-0.0
C	-20.235	1.533	0.0
S	-19.827	-1.013	-0.0
H	-18.132	2.205	0.0
H	-20.713	2.506	0.0
C	-18.839	1.382	0.0
C	-18.428	0.052	0.0
C	-25.278	-0.092	-0.0
C	-24.621	1.151	-0.0
C	-24.421	-1.211	-0.0
F	-25.362	2.284	-0.0
F	-22.306	-2.199	-0.0
H	-24.817	-2.219	-0.0
H	-22.852	2.306	-0.0
C	-23.248	1.297	-0.0
C	-23.048	-1.066	-0.0
C	-22.391	0.178	-0.0
C	-29.244	0.034	-0.0
C	-28.833	-1.295	-0.0
S	-27.846	1.099	-0.0
H	-26.959	-2.418	-0.0
H	-29.54	-2.118	-0.0
C	-27.436	-1.445	-0.0
C	-26.731	-0.251	-0.0
C	-34.049	-0.356	-0.0
C	-32.914	0.459	-0.0
N	-33.595	-1.674	-0.0
C	-32.162	-1.74	-0.0
C	-32.502	1.845	-0.0
O	-33.116	2.91	-0.0
O	-31.548	-2.804	-0.0
C	-30.298	3.01	-0.0
C	-34.367	-2.904	-0.0
H	-34.994	-2.986	-0.894
H	-33.639	-3.718	-0.0
H	-34.994	-2.986	0.893
H	-29.67	3.091	0.893
H	-29.67	3.091	-0.894
H	-31.026	3.823	0.0
N	-31.069	1.78	-0.0
C	-31.751	-0.353	-0.0
C	-30.616	0.462	-0.0
C	-37.934	0.357	-0.0
C	-37.227	1.552	-0.0
S	-36.819	-0.994	-0.0
H	-35.124	2.224	0.0
H	-37.705	2.524	-0.0
C	-35.832	1.401	-0.0
C	-35.42	0.071	-0.0
C	-42.27	-0.074	-0.0
C	-41.613	1.17	-0.0
C	-41.414	-1.192	-0.0
F	-42.355	2.303	-0.0
F	-39.298	-2.18	-0.0
H	-41.81	-2.2	-0.0
H	-39.845	2.324	-0.0
C	-40.24	1.316	-0.0
C	-40.041	-1.047	-0.0
C	-39.383	0.197	-0.0
C	-46.236	0.053	-0.0
C	-45.825	-1.276	-0.0
S	-44.838	1.118	-0.0
H	-43.951	-2.399	-0.0
H	-46.532	-2.1	-0.0
C	-44.428	-1.426	-0.0
C	-43.723	-0.232	-0.0
C	-51.041	-0.337	-0.0
C	-49.906	0.478	-0.0
N	-50.588	-1.655	-0.0
C	-49.155	-1.721	-0.0
C	-49.495	1.864	-0.0
O	-50.109	2.929	-0.0
O	-48.541	-2.785	-0.0
C	-47.29	3.029	-0.0
C	-51.359	-2.886	-0.0
H	-51.987	-2.967	-0.894
H	-50.631	-3.699	-0.0
H	-51.987	-2.967	0.893
H	-46.663	3.11	0.893
H	-46.663	3.11	-0.894
H	-48.018	3.842	-0.0
N	-48.062	1.799	-0.0
C	-48.743	-0.335	-0.0
C	-47.608	0.481	-0.0
C	-54.926	0.376	-0.0
C	-54.22	1.571	-0.0
S	-53.811	-0.975	-0.0
H	-52.116	2.243	-0.0
H	-54.698	2.543	-0.0
C	-52.824	1.42	-0.0
C	-52.413	0.09	-0.0
C	-59.262	-0.055	-0.001
C	-58.605	1.189	-0.001
C	-58.406	-1.173	-0.0
F	-59.347	2.322	-0.001
F	-56.291	-2.162	-0.0
H	-58.802	-2.181	-0.0
H	-56.837	2.343	-0.0
C	-57.232	1.335	-0.0
C	-57.033	-1.028	-0.0
C	-56.376	0.216	-0.0
C	-63.228	0.072	-0.0
C	-62.817	-1.257	-0.0
S	-61.831	1.137	-0.001
H	-60.943	-2.38	-0.001
H	-63.524	-2.081	-0.0
C	-61.421	-1.407	-0.001
C	-60.715	-0.214	-0.001
C	-68.034	-0.319	-0.0
C	-66.899	0.497	-0.0
N	-67.58	-1.637	-0.0
C	-66.147	-1.702	-0.0
C	-66.487	1.883	-0.0
O	-67.101	2.948	-0.0
O	-65.533	-2.767	-0.0
C	-64.282	3.048	-0.0
C	-68.352	-2.867	-0.0
H	-68.979	-2.948	-0.894
H	-67.623	-3.68	-0.0
H	-68.979	-2.948	0.893
H	-63.655	3.129	0.893
H	-63.655	3.129	-0.894
H	-65.011	3.861	-0.0
N	-65.054	1.818	-0.0
C	-65.735	-0.316	-0.0
C	-64.601	0.5	-0.0
C	-71.918	0.395	-0.0
C	-71.212	1.59	-0.0
S	-70.804	-0.956	-0.001
H	-69.109	2.262	-0.0
H	-71.69	2.562	-0.0
C	-69.816	1.438	-0.0
C	-69.405	0.109	-0.0
C	-76.255	-0.036	-0.001
C	-75.598	1.208	-0.001
C	-75.398	-1.154	-0.001
F	-76.339	2.341	-0.001
F	-73.283	-2.143	-0.0
H	-75.795	-2.162	-0.001
H	-73.829	2.362	-0.001
C	-74.225	1.354	-0.001
C	-74.025	-1.009	-0.001
C	-73.368	0.234	-0.001
C	-80.221	0.09	-0.001
C	-79.81	-1.238	-0.001
S	-78.823	1.156	-0.001
H	-77.936	-2.361	-0.001
H	-80.517	-2.062	-0.001
C	-78.413	-1.388	-0.001
C	-77.708	-0.195	-0.001
C	-85.026	-0.3	-0.001
C	-83.891	0.516	-0.001
N	-84.572	-1.618	-0.001
C	-83.139	-1.683	-0.001
C	-83.479	1.902	-0.001
O	-84.093	2.967	-0.0
O	-82.525	-2.748	-0.001
C	-81.275	3.067	-0.0
C	-85.344	-2.848	-0.001
H	-85.971	-2.929	-0.894
H	-84.616	-3.661	-0.001
H	-85.971	-2.929	0.893
H	-80.647	3.148	0.893
H	-80.647	3.148	-0.894
H	-82.003	3.88	-0.0
N	-82.046	1.836	-0.001
C	-82.728	-0.297	-0.001
C	-81.593	0.518	-0.001
C	-88.911	0.414	-0.001
C	-88.204	1.608	-0.0
S	-87.796	-0.937	-0.001
H	-86.101	2.28	-0.0
H	-88.682	2.581	-0.0
C	-86.809	1.457	-0.0
C	-86.397	0.128	-0.001
C	-93.247	-0.017	-0.001
C	-92.59	1.227	-0.001
C	-92.391	-1.136	-0.001
F	-93.332	2.36	-0.001
F	-90.275	-2.124	-0.001
H	-92.787	-2.144	-0.001
H	-90.822	2.381	-0.001
C	-91.217	1.373	-0.001
C	-91.018	-0.99	-0.001
C	-90.36	0.253	-0.001
C	-97.213	0.109	-0.001
C	-96.802	-1.219	-0.001
S	-95.815	1.174	-0.001
H	-94.928	-2.342	-0.001
H	-97.509	-2.043	-0.001
C	-95.405	-1.37	-0.001
C	-94.7	-0.176	-0.001
C	-102.018	-0.281	-0.001
C	-100.883	0.535	-0.001
N	-101.565	-1.599	-0.001
C	-100.132	-1.664	-0.001
C	-100.472	1.921	-0.001
O	-101.086	2.986	-0.001
O	-99.518	-2.729	-0.001
C	-98.267	3.085	-0.001
C	-102.336	-2.829	-0.001
H	-102.964	-2.91	-0.894
H	-101.608	-3.642	-0.001
H	-102.964	-2.91	0.893
H	-97.64	3.166	0.893
H	-97.64	3.167	-0.894
H	-98.995	3.899	-0.001
N	-99.039	1.855	-0.001
C	-99.72	-0.278	-0.001
C	-98.585	0.537	-0.001
C	-105.903	0.433	-0.001
C	-105.197	1.627	-0.001
S	-104.788	-0.919	-0.001
H	-103.093	2.299	-0.001
H	-105.675	2.6	-0.001
C	-103.801	1.476	-0.001
C	-103.39	0.147	-0.001
C	-110.239	0.002	-0.001
C	-109.582	1.245	-0.001
C	-109.383	-1.117	-0.001
F	-110.324	2.378	-0.001
F	-107.268	-2.105	-0.001
H	-109.779	-2.125	-0.001
H	-107.814	2.4	-0.001
C	-108.209	1.391	-0.001
C	-108.01	-0.972	-0.001
C	-107.353	0.272	-0.001
C	-114.205	0.128	-0.001
C	-113.794	-1.201	-0.001
S	-112.808	1.193	-0.001
H	-111.92	-2.324	-0.001
H	-114.501	-2.024	-0.001
C	-112.398	-1.351	-0.001
C	-111.692	-0.157	-0.001
C	-119.011	-0.262	-0.001
C	-117.876	0.554	-0.001
N	-118.557	-1.58	-0.001
C	-117.124	-1.646	-0.001
C	-117.464	1.939	-0.001
O	-118.078	3.004	-0.001
O	-116.51	-2.71	-0.001
C	-115.259	3.104	-0.001
C	-119.329	-2.81	-0.001
H	-119.956	-2.891	-0.894
H	-118.6	-3.624	-0.001
H	-119.956	-2.892	0.893
H	-114.632	3.185	0.893
H	-114.632	3.185	-0.894
H	-115.988	3.917	-0.001
N	-116.031	1.874	-0.001
C	-116.712	-0.259	-0.001
C	-115.578	0.556	-0.001
C	-122.896	0.452	-0.001
C	-122.189	1.646	-0.001
S	-121.781	-0.9	-0.001
H	-120.086	2.318	-0.001
H	-122.667	2.618	-0.001
C	-120.793	1.495	-0.001
C	-120.382	0.165	-0.001
C	-127.232	0.02	-0.001
C	-126.575	1.264	-0.001
C	-126.375	-1.098	-0.001
F	-127.316	2.397	-0.001
F	-124.26	-2.086	-0.001
H	-126.772	-2.106	-0.001
H	-124.806	2.418	-0.001
C	-125.202	1.41	-0.001
C	-125.002	-0.953	-0.001
C	-124.345	0.291	-0.001
C	-131.198	0.147	-0.001
C	-130.787	-1.182	-0.001
S	-129.8	1.212	-0.001
H	-128.913	-2.305	-0.001
H	-131.494	-2.006	-0.001
C	-129.39	-1.332	-0.001
C	-128.685	-0.138	-0.001
C	-136.003	-0.243	-0.001
C	-134.868	0.572	-0.001
N	-135.549	-1.561	-0.001
C	-134.116	-1.627	-0.001
C	-134.456	1.958	-0.001
O	-135.07	3.023	-0.001
O	-133.502	-2.691	-0.001
C	-132.252	3.123	-0.001
C	-136.321	-2.792	-0.001
H	-136.948	-2.873	-0.894
H	-135.593	-3.605	-0.001
H	-136.948	-2.873	0.892
H	-131.624	3.204	0.892
H	-131.624	3.204	-0.894
H	-132.98	3.936	-0.001
N	-133.023	1.893	-0.001
C	-133.705	-0.241	-0.001
C	-132.57	0.575	-0.001
C	-139.888	0.47	-0.001
C	-139.181	1.665	-0.001
S	-138.773	-0.881	-0.001
H	-137.078	2.337	-0.001
H	-139.659	2.637	-0.001
C	-137.786	1.514	-0.001
C	-137.374	0.184	-0.001
C	-144.224	0.039	-0.001
C	-143.567	1.283	-0.001
C	-143.368	-1.079	-0.001
F	-144.309	2.416	-0.001
F	-141.252	-2.067	-0.001
H	-143.764	-2.087	-0.001
H	-141.799	2.437	-0.001
C	-142.194	1.429	-0.001
C	-141.995	-0.934	-0.001
C	-141.337	0.31	-0.001
C	-148.19	0.166	-0.001
C	-147.779	-1.163	-0.001
S	-146.792	1.231	-0.001
H	-145.905	-2.286	-0.001
H	-148.486	-1.987	-0.001
C	-146.382	-1.313	-0.001
C	-145.677	-0.12	-0.001
C	-152.995	-0.225	-0.001
C	-151.86	0.591	-0.001
N	-152.542	-1.543	-0.001
C	-151.109	-1.608	-0.001
C	-151.449	1.977	-0.001
O	-152.063	3.042	-0.001
O	-150.495	-2.673	-0.001
C	-149.244	3.142	-0.001
C	-153.313	-2.773	-0.001
H	-153.941	-2.854	-0.895
H	-152.585	-3.586	-0.001
H	-153.941	-2.854	0.892
H	-148.617	3.223	0.892
H	-148.617	3.223	-0.894
H	-149.973	3.955	-0.001
N	-150.016	1.912	-0.001
C	-150.697	-0.222	-0.001
C	-149.562	0.594	-0.001
C	-156.88	0.489	-0.001
C	-156.174	1.684	-0.001
S	-155.765	-0.862	-0.001
H	-154.07	2.356	-0.001
H	-156.652	2.656	-0.001
C	-154.778	1.532	-0.001
C	-154.367	0.203	-0.001
C	-161.216	0.058	-0.001
C	-160.559	1.302	-0.001
C	-160.36	-1.06	-0.001
F	-161.301	2.435	-0.001
F	-158.245	-2.049	-0.001
H	-160.756	-2.068	-0.001
H	-158.791	2.456	-0.001
C	-159.186	1.448	-0.001
C	-158.987	-0.915	-0.001
C	-158.33	0.328	-0.001
H	8.333	-0.204	-0.0
H	-162.295	-0.032	-0.001
