422
DPPDTTF_10
C	-4.638	-0.009	0.001
C	-5.013	-1.348	0.018
S	-6.074	1.016	-0.02
H	-6.864	-2.527	0.048
H	-4.278	-2.148	0.031
C	-6.405	-1.545	0.022
C	-7.141	-0.371	0.01
C	0.176	-0.249	0.013
C	-0.985	0.532	0.002
N	-0.238	-1.58	0.027
C	-1.668	-1.689	0.027
C	-1.439	1.904	-0.015
O	-0.857	2.987	-0.026
O	-2.251	-2.772	0.039
C	-3.677	3.0	-0.031
C	0.571	-2.787	0.043
H	1.198	-2.838	0.938
H	-0.133	-3.622	0.051
H	1.201	-2.859	-0.85
H	-4.305	3.052	-0.927
H	-4.308	3.074	0.861
H	-2.974	3.835	-0.04
N	-2.869	1.794	-0.015
C	-2.122	-0.317	0.01
C	-3.282	0.463	-0.001
C	4.031	0.584	0.008
C	3.292	1.76	-0.007
S	2.964	-0.806	0.023
H	1.168	2.361	-0.017
H	3.751	2.743	-0.018
C	1.903	1.562	-0.006
C	1.53	0.22	0.009
C	10.073	-0.078	0.037
C	9.343	1.094	0.017
S	9.025	-1.512	0.03
C	7.949	0.851	0.005
C	7.612	-0.499	0.021
F	5.674	-1.939	0.041
H	9.8	2.077	0.032
S	6.526	1.864	-0.005
C	6.219	-0.711	0.026
C	5.461	0.443	0.012
C	14.014	0.119	0.047
C	13.639	-1.221	0.063
S	12.578	1.143	0.026
H	11.788	-2.4	0.094
H	14.374	-2.02	0.077
C	12.247	-1.418	0.068
C	11.51	-0.244	0.055
C	18.828	-0.122	0.058
C	17.667	0.659	0.047
N	18.414	-1.453	0.073
C	16.984	-1.562	0.072
C	17.213	2.031	0.031
O	17.794	3.115	0.019
O	16.401	-2.644	0.085
C	14.974	3.127	0.014
C	19.223	-2.659	0.088
H	19.85	-2.711	0.983
H	18.519	-3.494	0.097
H	19.853	-2.732	-0.804
H	14.347	3.18	-0.881
H	14.344	3.201	0.907
H	15.678	3.962	0.005
N	15.783	1.922	0.03
C	16.53	-0.189	0.055
C	15.37	0.59	0.045
C	22.683	0.712	0.053
C	21.944	1.887	0.039
S	21.616	-0.679	0.068
H	19.819	2.488	0.029
H	22.403	2.87	0.028
C	20.555	1.689	0.039
C	20.182	0.347	0.054
C	28.725	0.049	0.082
C	27.995	1.221	0.062
S	27.677	-1.384	0.076
C	26.601	0.979	0.05
C	26.264	-0.371	0.066
F	24.326	-1.812	0.086
H	28.452	2.204	0.077
S	25.178	1.992	0.04
C	24.871	-0.584	0.071
C	24.113	0.57	0.057
C	32.666	0.246	0.092
C	32.291	-1.093	0.108
S	31.23	1.271	0.071
H	30.439	-2.273	0.139
H	33.026	-1.893	0.122
C	30.899	-1.29	0.113
C	30.162	-0.116	0.1
C	37.48	0.006	0.103
C	36.319	0.787	0.092
N	37.065	-1.326	0.118
C	35.636	-1.434	0.118
C	35.865	2.159	0.076
O	36.446	3.242	0.065
O	35.053	-2.517	0.13
C	33.626	3.255	0.06
C	37.874	-2.532	0.133
H	38.502	-2.584	1.028
H	37.171	-3.367	0.142
H	38.505	-2.604	-0.759
H	32.999	3.307	-0.836
H	32.996	3.329	0.952
H	34.33	4.09	0.051
N	34.435	2.049	0.075
C	35.182	-0.062	0.101
C	34.022	0.718	0.09
C	41.335	0.839	0.099
C	40.596	2.014	0.084
S	40.268	-0.552	0.114
H	38.471	2.615	0.074
H	41.055	2.998	0.073
C	39.207	1.816	0.085
C	38.834	0.475	0.1
C	47.377	0.177	0.128
C	46.647	1.349	0.107
S	46.329	-1.257	0.121
C	45.253	1.106	0.095
C	44.916	-0.244	0.112
F	42.978	-1.684	0.132
H	47.104	2.332	0.122
S	43.829	2.119	0.086
C	43.523	-0.456	0.117
C	42.765	0.698	0.103
C	51.318	0.374	0.137
C	50.943	-0.966	0.154
S	49.882	1.398	0.117
H	49.091	-2.145	0.185
H	51.678	-1.765	0.167
C	49.551	-1.163	0.158
C	48.814	0.011	0.146
C	56.131	0.133	0.149
C	54.971	0.914	0.138
N	55.717	-1.198	0.163
C	54.288	-1.307	0.163
C	54.517	2.286	0.121
O	55.098	3.37	0.11
O	53.705	-2.389	0.175
C	52.278	3.382	0.105
C	56.526	-2.404	0.179
H	57.154	-2.456	1.074
H	55.823	-3.239	0.187
H	57.156	-2.477	-0.714
H	51.651	3.435	-0.791
H	51.648	3.456	0.997
H	52.982	4.217	0.096
N	53.087	2.177	0.121
C	53.834	0.066	0.146
C	52.674	0.845	0.135
C	59.987	0.966	0.144
C	59.248	2.142	0.129
S	58.92	-0.424	0.159
H	57.123	2.743	0.12
H	59.707	3.125	0.118
C	57.859	1.944	0.13
C	57.486	0.602	0.145
C	66.029	0.304	0.173
C	65.299	1.476	0.153
S	64.981	-1.129	0.166
C	63.905	1.234	0.141
C	63.567	-0.116	0.157
F	61.63	-1.557	0.177
H	65.756	2.459	0.168
S	62.481	2.247	0.131
C	62.175	-0.329	0.162
C	61.416	0.825	0.148
C	69.97	0.501	0.183
C	69.595	-0.838	0.199
S	68.534	1.526	0.162
H	67.743	-2.018	0.23
H	70.329	-1.638	0.213
C	68.203	-1.035	0.204
C	67.466	0.138	0.191
C	74.783	0.261	0.194
C	73.622	1.042	0.183
N	74.369	-1.071	0.209
C	72.94	-1.179	0.208
C	73.169	2.414	0.167
O	73.75	3.497	0.155
O	72.357	-2.262	0.221
C	70.93	3.51	0.15
C	75.178	-2.277	0.224
H	75.806	-2.329	1.119
H	74.475	-3.112	0.233
H	75.808	-2.349	-0.668
H	70.303	3.562	-0.745
H	70.3	3.584	1.043
H	71.634	4.344	0.141
N	71.739	2.304	0.166
C	72.486	0.193	0.191
C	71.325	0.973	0.181
C	78.639	1.094	0.189
C	77.9	2.269	0.175
S	77.572	-0.297	0.204
H	75.775	2.87	0.165
H	78.358	3.252	0.164
C	76.51	2.071	0.175
C	76.138	0.73	0.19
C	84.681	0.432	0.218
C	83.951	1.604	0.198
S	83.633	-1.002	0.212
C	82.557	1.361	0.186
C	82.219	0.011	0.202
F	80.282	-1.429	0.222
H	84.408	2.587	0.213
S	81.133	2.374	0.176
C	80.827	-0.201	0.207
C	80.068	0.953	0.193
C	88.622	0.629	0.228
C	88.247	-0.711	0.244
S	87.186	1.653	0.207
H	86.395	-1.89	0.275
H	88.981	-1.51	0.258
C	86.855	-0.908	0.249
C	86.118	0.266	0.236
C	93.435	0.388	0.239
C	92.274	1.169	0.228
N	93.021	-0.943	0.254
C	91.592	-1.052	0.254
C	91.821	2.541	0.212
O	92.402	3.625	0.201
O	91.009	-2.134	0.266
C	89.582	3.637	0.196
C	93.83	-2.149	0.269
H	94.458	-2.201	1.164
H	93.127	-2.984	0.278
H	94.46	-2.222	-0.623
H	88.955	3.69	-0.7
H	88.952	3.711	1.088
H	90.286	4.472	0.187
N	90.391	2.432	0.211
C	91.138	0.321	0.237
C	89.977	1.1	0.226
C	97.291	1.221	0.235
C	96.552	2.397	0.22
S	96.224	-0.169	0.25
H	94.427	2.998	0.21
H	97.01	3.38	0.209
C	95.162	2.199	0.221
C	94.79	0.857	0.236
C	103.333	0.559	0.264
C	102.603	1.731	0.243
S	102.285	-0.874	0.257
C	101.208	1.489	0.232
C	100.871	0.139	0.248
F	98.934	-1.302	0.268
H	103.06	2.714	0.258
S	99.785	2.502	0.222
C	99.479	-0.074	0.253
C	98.72	1.08	0.239
C	107.274	0.756	0.273
C	106.899	-0.584	0.29
S	105.838	1.781	0.253
H	105.047	-1.763	0.321
H	107.633	-1.383	0.303
C	105.507	-0.78	0.294
C	104.77	0.393	0.282
C	112.087	0.516	0.285
C	110.926	1.297	0.274
N	111.673	-0.816	0.3
C	110.243	-0.924	0.299
C	110.473	2.668	0.258
O	111.054	3.752	0.246
O	109.661	-2.007	0.311
C	108.234	3.765	0.241
C	112.482	-2.022	0.315
H	113.11	-2.074	1.21
H	111.779	-2.857	0.323
H	113.112	-2.094	-0.578
H	107.607	3.817	-0.655
H	107.604	3.838	1.133
H	108.938	4.599	0.232
N	109.043	2.559	0.257
C	109.789	0.448	0.282
C	108.629	1.228	0.271
C	115.943	1.349	0.28
C	115.203	2.524	0.265
S	114.876	-0.042	0.295
H	113.079	3.125	0.256
H	115.662	3.507	0.254
C	113.814	2.326	0.266
C	113.442	0.985	0.281
C	121.985	0.687	0.309
C	121.255	1.859	0.289
S	120.937	-0.747	0.302
C	119.86	1.616	0.277
C	119.523	0.266	0.293
F	117.585	-1.174	0.313
H	121.712	2.842	0.304
S	118.437	2.629	0.267
C	118.131	0.054	0.298
C	117.372	1.208	0.284
C	125.926	0.884	0.319
C	125.551	-0.456	0.335
S	124.489	1.908	0.298
H	123.699	-1.635	0.366
H	126.285	-1.256	0.349
C	124.159	-0.653	0.34
C	123.422	0.521	0.327
C	130.739	0.643	0.33
C	129.578	1.424	0.319
N	130.325	-0.688	0.345
C	128.895	-0.797	0.344
C	129.125	2.796	0.303
O	129.706	3.88	0.291
O	128.313	-1.879	0.357
C	126.886	3.892	0.286
C	131.134	-1.894	0.36
H	131.762	-1.946	1.255
H	130.431	-2.729	0.369
H	131.764	-1.967	-0.532
H	126.259	3.945	-0.609
H	126.256	3.966	1.179
H	127.59	4.727	0.277
N	127.695	2.687	0.302
C	128.441	0.576	0.327
C	127.281	1.355	0.317
C	134.595	1.476	0.325
C	133.855	2.652	0.311
S	133.528	0.086	0.34
H	131.731	3.253	0.301
H	134.314	3.635	0.3
C	132.466	2.454	0.311
C	132.094	1.112	0.326
C	140.637	0.814	0.354
C	139.907	1.986	0.334
S	139.589	-0.619	0.348
C	138.512	1.744	0.322
C	138.175	0.394	0.338
F	136.237	-1.047	0.358
H	140.364	2.969	0.349
S	137.089	2.757	0.312
C	136.782	0.181	0.343
C	136.024	1.335	0.329
C	144.578	1.011	0.364
C	144.203	-0.329	0.38
S	143.141	2.036	0.343
H	142.351	-1.508	0.411
H	144.937	-1.128	0.394
C	142.81	-0.525	0.385
C	142.074	0.648	0.372
C	149.391	0.771	0.375
C	148.23	1.552	0.365
N	148.977	-0.561	0.39
C	147.547	-0.67	0.39
C	147.777	2.923	0.348
O	148.358	4.007	0.337
O	146.965	-1.752	0.402
C	145.538	4.02	0.332
C	149.786	-1.767	0.405
H	150.414	-1.819	1.301
H	149.083	-2.602	0.414
H	150.416	-1.84	-0.487
H	144.911	4.072	-0.564
H	144.908	4.093	1.224
H	146.242	4.854	0.323
N	146.346	2.814	0.347
C	147.093	0.703	0.373
C	145.933	1.482	0.362
C	153.246	1.604	0.371
C	152.507	2.779	0.356
S	152.18	0.213	0.386
H	150.383	3.38	0.346
H	152.966	3.762	0.345
C	151.118	2.581	0.357
C	150.746	1.239	0.372
C	159.289	0.942	0.4
C	158.559	2.114	0.379
S	158.241	-0.492	0.393
C	157.164	1.871	0.368
C	156.827	0.521	0.384
F	154.889	-0.92	0.404
H	159.016	3.096	0.394
S	155.741	2.884	0.358
C	155.434	0.308	0.389
C	154.676	1.463	0.375
C	163.23	1.139	0.409
C	162.854	-0.201	0.426
S	161.793	2.163	0.389
H	161.003	-1.38	0.457
H	163.589	-1.001	0.44
C	161.462	-0.398	0.431
C	160.726	0.776	0.418
C	168.043	0.898	0.421
C	166.882	1.679	0.41
N	167.629	-0.433	0.436
C	166.199	-0.542	0.435
C	166.429	3.051	0.394
O	167.01	4.135	0.382
O	165.617	-1.624	0.447
C	164.19	4.147	0.377
C	168.438	-1.639	0.451
H	169.066	-1.691	1.346
H	167.735	-2.474	0.459
H	169.068	-1.712	-0.442
H	163.563	4.2	-0.519
H	163.56	4.221	1.269
H	164.894	4.982	0.368
N	164.998	2.942	0.393
C	165.745	0.831	0.418
C	164.585	1.61	0.407
C	171.898	1.731	0.416
C	171.159	2.907	0.401
S	170.832	0.341	0.431
H	169.035	3.508	0.392
H	171.618	3.89	0.39
C	169.77	2.709	0.402
C	169.398	1.367	0.417
C	177.941	1.069	0.445
C	177.211	2.241	0.425
S	176.893	-0.364	0.438
C	175.816	1.999	0.413
C	175.479	0.649	0.429
F	173.541	-0.792	0.449
H	177.668	3.224	0.44
S	174.393	3.012	0.403
C	174.086	0.436	0.434
C	173.328	1.59	0.42
H	-8.222	-0.32	0.017
H	179.022	1.029	0.463
