642
DPPDPP_10
C	9.398	-0.02	0.006
C	9.848	1.297	0.006
S	10.776	-1.123	0.0
H	11.764	2.37	0.023
H	9.159	2.137	0.009
C	11.249	1.415	0.01
C	11.919	0.203	0.013
C	4.607	0.494	0.007
C	5.721	-0.351	0.007
N	5.095	1.8	0.007
C	6.529	1.828	0.007
C	6.098	-1.747	0.008
O	5.456	-2.795	0.009
O	7.171	2.876	0.007
C	8.271	-2.968	0.008
C	4.356	3.049	0.006
H	3.732	3.148	0.9
H	5.106	3.843	0.006
H	3.732	3.148	-0.888
H	8.895	-3.066	-0.886
H	8.896	-3.065	0.902
H	7.522	-3.762	0.009
N	7.531	-1.719	0.008
C	6.904	0.432	0.007
C	8.019	-0.413	0.007
C	0.708	-0.124	0.008
C	1.381	-1.339	0.008
S	1.852	1.203	0.007
H	3.469	-2.058	0.008
H	0.868	-2.294	0.009
C	2.779	-1.219	0.008
C	3.228	0.1	0.008
C	-3.228	-0.1	0.008
C	-2.779	1.219	0.009
S	-1.852	-1.203	0.007
H	-0.868	2.294	0.009
H	-3.469	2.058	0.009
C	-1.381	1.339	0.009
C	-0.708	0.124	0.008
C	-8.019	0.413	0.007
C	-6.904	-0.432	0.007
N	-7.531	1.719	0.008
C	-6.098	1.747	0.009
C	-6.529	-1.828	0.007
O	-7.171	-2.876	0.007
O	-5.456	2.795	0.01
C	-4.356	-3.049	0.006
C	-8.271	2.968	0.009
H	-7.522	3.762	0.009
H	-8.895	3.066	-0.885
H	-8.896	3.065	0.902
H	-3.732	-3.148	-0.888
H	-3.732	-3.148	0.9
H	-5.106	-3.843	0.006
N	-5.095	-1.8	0.007
C	-5.721	0.351	0.008
C	-4.607	-0.494	0.007
C	-11.919	-0.203	0.012
C	-11.249	-1.415	0.01
S	-10.776	1.123	0.0
H	-9.159	-2.137	0.009
H	-11.764	-2.37	0.023
C	-9.848	-1.297	0.006
C	-9.398	0.02	0.006
C	-15.862	-0.174	0.013
C	-15.412	1.142	0.013
S	-14.483	-1.277	0.007
H	-13.496	2.216	0.031
H	-16.1	1.982	0.016
C	-14.011	1.261	0.018
C	-13.341	0.048	0.02
C	-20.653	0.339	0.014
C	-19.538	-0.506	0.015
N	-20.164	1.645	0.014
C	-18.731	1.673	0.014
C	-19.162	-1.902	0.016
O	-19.804	-2.95	0.016
O	-18.088	2.721	0.014
C	-16.988	-3.123	0.016
C	-20.904	2.895	0.013
H	-21.528	2.994	0.908
H	-20.154	3.689	0.013
H	-21.528	2.993	-0.881
H	-16.364	-3.22	-0.878
H	-16.364	-3.22	0.909
H	-17.738	-3.917	0.016
N	-17.728	-1.873	0.015
C	-18.356	0.277	0.014
C	-17.24	-0.567	0.014
C	-24.552	-0.279	0.015
C	-23.879	-1.493	0.016
S	-23.408	1.048	0.015
H	-21.791	-2.212	0.016
H	-24.392	-2.449	0.016
C	-22.481	-1.374	0.016
C	-22.031	-0.055	0.015
C	-28.488	-0.255	0.015
C	-28.039	1.064	0.016
S	-27.112	-1.357	0.015
H	-26.128	2.14	0.017
H	-28.728	1.903	0.016
C	-26.641	1.184	0.016
C	-25.967	-0.03	0.016
C	-33.279	0.258	0.015
C	-32.163	-0.586	0.014
N	-32.791	1.564	0.016
C	-31.357	1.592	0.016
C	-31.789	-1.982	0.014
O	-32.431	-3.03	0.014
O	-30.715	2.641	0.017
C	-29.616	-3.204	0.014
C	-33.531	2.813	0.016
H	-32.782	3.608	0.016
H	-34.155	2.911	-0.878
H	-34.155	2.91	0.91
H	-28.992	-3.302	-0.88
H	-28.992	-3.303	0.908
H	-30.365	-3.998	0.013
N	-30.355	-1.954	0.014
C	-30.981	0.196	0.015
C	-29.866	-0.648	0.015
C	-37.178	-0.357	0.02
C	-36.508	-1.57	0.018
S	-36.036	0.968	0.007
H	-34.419	-2.291	0.017
H	-37.023	-2.525	0.031
C	-35.108	-1.452	0.014
C	-34.658	-0.135	0.013
C	-41.121	-0.329	0.02
C	-40.671	0.988	0.021
S	-39.743	-1.432	0.015
H	-38.756	2.061	0.038
H	-41.36	1.827	0.024
C	-39.27	1.106	0.025
C	-38.601	-0.106	0.027
C	-45.913	0.184	0.022
C	-44.798	-0.66	0.022
N	-45.424	1.491	0.021
C	-43.99	1.518	0.021
C	-44.422	-2.056	0.023
O	-45.063	-3.105	0.024
O	-43.348	2.567	0.021
C	-42.248	-3.277	0.023
C	-46.163	2.74	0.021
H	-46.787	2.839	0.915
H	-45.413	3.534	0.02
H	-46.787	2.838	-0.873
H	-41.624	-3.375	-0.871
H	-41.624	-3.374	0.917
H	-42.997	-4.072	0.023
N	-42.988	-2.028	0.023
C	-43.615	0.123	0.021
C	-42.5	-0.722	0.022
C	-49.812	-0.433	0.023
C	-49.138	-1.648	0.023
S	-48.667	0.893	0.022
H	-47.051	-2.367	0.023
H	-49.651	-2.604	0.024
C	-47.74	-1.528	0.023
C	-47.291	-0.209	0.022
C	-53.747	-0.409	0.022
C	-53.298	0.91	0.023
S	-52.371	-1.512	0.022
H	-51.387	1.985	0.024
H	-53.988	1.749	0.024
C	-51.9	1.029	0.023
C	-51.227	-0.185	0.023
C	-58.538	0.104	0.022
C	-57.423	-0.741	0.022
N	-58.051	1.409	0.023
C	-56.617	1.438	0.023
C	-57.048	-2.137	0.021
O	-57.691	-3.185	0.021
O	-55.975	2.486	0.024
C	-54.875	-3.359	0.021
C	-58.79	2.659	0.023
H	-58.041	3.453	0.024
H	-59.414	2.757	-0.871
H	-59.415	2.756	0.917
H	-54.251	-3.457	-0.873
H	-54.251	-3.458	0.915
H	-55.625	-4.152	0.021
N	-55.614	-2.109	0.021
C	-56.241	0.042	0.022
C	-55.126	-0.803	0.022
C	-62.438	-0.512	0.027
C	-61.768	-1.725	0.025
S	-61.295	0.813	0.015
H	-59.678	-2.446	0.024
H	-62.283	-2.679	0.038
C	-60.367	-1.606	0.021
C	-59.917	-0.289	0.02
C	-66.381	-0.484	0.028
C	-65.931	0.833	0.028
S	-65.003	-1.586	0.022
H	-64.015	1.906	0.045
H	-66.62	1.673	0.031
C	-64.53	0.952	0.032
C	-63.86	-0.261	0.035
C	-71.172	0.03	0.029
C	-70.057	-0.815	0.029
N	-70.684	1.336	0.029
C	-69.25	1.364	0.029
C	-69.681	-2.211	0.03
O	-70.323	-3.259	0.031
O	-68.608	2.412	0.029
C	-67.508	-3.432	0.03
C	-71.423	2.586	0.028
H	-72.047	2.685	0.922
H	-70.673	3.379	0.028
H	-72.047	2.684	-0.866
H	-66.884	-3.53	-0.864
H	-66.883	-3.529	0.924
H	-68.257	-4.226	0.031
N	-68.248	-2.182	0.03
C	-68.875	-0.032	0.029
C	-67.76	-0.877	0.029
C	-75.071	-0.588	0.03
C	-74.398	-1.802	0.03
S	-73.927	0.739	0.029
H	-72.31	-2.522	0.03
H	-74.911	-2.758	0.031
C	-73.0	-1.683	0.03
C	-72.551	-0.364	0.03
C	-79.007	-0.564	0.03
C	-78.558	0.755	0.031
S	-77.631	-1.666	0.029
H	-76.647	1.831	0.031
H	-79.248	1.594	0.031
C	-77.16	0.875	0.031
C	-76.486	-0.34	0.03
C	-83.798	-0.051	0.029
C	-82.683	-0.896	0.029
N	-83.31	1.255	0.03
C	-81.876	1.283	0.031
C	-82.308	-2.291	0.029
O	-82.95	-3.34	0.029
O	-81.235	2.332	0.031
C	-80.135	-3.513	0.028
C	-84.05	2.504	0.031
H	-83.301	3.299	0.031
H	-84.674	2.602	-0.864
H	-84.675	2.601	0.924
H	-79.511	-3.611	-0.866
H	-79.511	-3.612	0.922
H	-80.885	-4.307	0.028
N	-80.874	-2.264	0.029
C	-81.5	-0.113	0.03
C	-80.385	-0.957	0.029
C	-87.697	-0.666	0.034
C	-87.028	-1.879	0.032
S	-86.555	0.659	0.022
H	-84.938	-2.6	0.031
H	-87.542	-2.834	0.045
C	-85.627	-1.761	0.028
C	-85.177	-0.444	0.028
C	-91.64	-0.638	0.035
C	-91.191	0.679	0.035
S	-90.262	-1.741	0.029
H	-89.275	1.752	0.053
H	-91.879	1.518	0.038
C	-89.79	0.797	0.04
C	-89.12	-0.416	0.042
C	-96.432	-0.125	0.036
C	-95.317	-0.969	0.036
N	-95.943	1.181	0.036
C	-94.51	1.209	0.036
C	-94.941	-2.365	0.037
O	-95.583	-3.414	0.038
O	-93.867	2.257	0.036
C	-92.767	-3.586	0.038
C	-96.682	2.431	0.035
H	-97.306	2.53	0.93
H	-95.933	3.225	0.035
H	-97.307	2.529	-0.859
H	-92.143	-3.684	-0.857
H	-92.143	-3.684	0.931
H	-93.516	-4.381	0.038
N	-93.507	-2.337	0.037
C	-94.135	-0.187	0.036
C	-93.019	-1.031	0.036
C	-100.331	-0.743	0.037
C	-99.657	-1.957	0.038
S	-99.186	0.584	0.037
H	-97.57	-2.676	0.038
H	-100.17	-2.913	0.038
C	-98.259	-1.837	0.037
C	-97.81	-0.518	0.037
C	-104.267	-0.718	0.037
C	-103.817	0.601	0.038
S	-102.891	-1.821	0.037
H	-101.907	1.676	0.039
H	-104.507	1.439	0.038
C	-102.42	0.72	0.038
C	-101.746	-0.494	0.037
C	-109.058	-0.206	0.037
C	-107.942	-1.05	0.036
N	-108.57	1.1	0.038
C	-107.136	1.129	0.038
C	-107.567	-2.446	0.036
O	-108.21	-3.494	0.036
O	-106.494	2.177	0.039
C	-105.394	-3.668	0.036
C	-109.31	2.35	0.038
H	-108.561	3.144	0.038
H	-109.934	2.448	-0.856
H	-109.934	2.447	0.932
H	-104.77	-3.766	-0.859
H	-104.771	-3.767	0.93
H	-106.144	-4.462	0.035
N	-106.134	-2.418	0.036
C	-106.76	-0.267	0.037
C	-105.645	-1.112	0.037
C	-112.957	-0.821	0.042
C	-112.287	-2.034	0.04
S	-111.815	0.504	0.029
H	-110.198	-2.755	0.038
H	-112.802	-2.989	0.053
C	-110.886	-1.915	0.036
C	-110.437	-0.599	0.035
C	-116.9	-0.793	0.042
C	-116.45	0.524	0.043
S	-115.522	-1.896	0.037
H	-114.535	1.597	0.06
H	-117.139	1.364	0.045
C	-115.049	0.642	0.047
C	-114.38	-0.57	0.049
C	-121.692	-0.279	0.044
C	-120.577	-1.124	0.044
N	-121.203	1.027	0.043
C	-119.769	1.055	0.043
C	-120.201	-2.52	0.045
O	-120.842	-3.568	0.046
O	-119.127	2.103	0.043
C	-118.027	-3.741	0.045
C	-121.942	2.276	0.043
H	-122.566	2.375	0.937
H	-121.192	3.07	0.042
H	-122.566	2.375	-0.851
H	-117.403	-3.839	-0.849
H	-117.402	-3.838	0.939
H	-118.776	-4.535	0.045
N	-118.767	-2.492	0.045
C	-119.394	-0.341	0.043
C	-118.279	-1.186	0.044
C	-125.591	-0.897	0.045
C	-124.917	-2.112	0.045
S	-124.446	0.43	0.044
H	-122.829	-2.831	0.045
H	-125.43	-3.067	0.046
C	-123.519	-1.992	0.045
C	-123.07	-0.673	0.044
C	-129.526	-0.873	0.044
C	-129.077	0.446	0.045
S	-128.15	-1.976	0.044
H	-127.166	1.521	0.046
H	-129.767	1.285	0.046
C	-127.679	0.566	0.045
C	-127.006	-0.649	0.045
C	-134.317	-0.36	0.044
C	-133.202	-1.205	0.044
N	-133.829	0.946	0.045
C	-132.396	0.974	0.045
C	-132.827	-2.601	0.043
O	-133.469	-3.649	0.043
O	-131.754	2.022	0.046
C	-130.654	-3.822	0.043
C	-134.569	2.195	0.045
H	-133.82	2.989	0.046
H	-135.193	2.293	-0.849
H	-135.194	2.292	0.939
H	-130.03	-3.921	-0.851
H	-130.03	-3.921	0.937
H	-131.404	-4.616	0.042
N	-131.393	-2.573	0.043
C	-132.02	-0.422	0.044
C	-130.905	-1.267	0.044
C	-138.217	-0.976	0.049
C	-137.547	-2.188	0.047
S	-137.074	0.35	0.037
H	-135.457	-2.91	0.046
H	-138.062	-3.143	0.06
C	-136.146	-2.07	0.043
C	-135.696	-0.753	0.042
C	-142.16	-0.947	0.049
C	-141.71	0.369	0.05
S	-140.781	-2.05	0.044
H	-139.794	1.443	0.067
H	-142.398	1.209	0.053
C	-140.309	0.488	0.054
C	-139.639	-0.725	0.056
C	-146.951	-0.434	0.051
C	-145.836	-1.279	0.051
N	-146.463	0.872	0.05
C	-145.029	0.9	0.05
C	-145.46	-2.675	0.052
O	-146.102	-3.723	0.053
O	-144.386	1.948	0.05
C	-143.287	-3.896	0.052
C	-147.202	2.122	0.05
H	-147.826	2.221	0.944
H	-146.452	2.916	0.05
H	-147.826	2.22	-0.844
H	-142.662	-3.993	-0.842
H	-142.662	-3.993	0.946
H	-144.036	-4.69	0.053
N	-144.026	-2.646	0.052
C	-144.654	-0.496	0.051
C	-143.539	-1.34	0.051
C	-150.85	-1.052	0.052
C	-150.177	-2.266	0.052
S	-149.706	0.275	0.051
H	-148.089	-2.985	0.052
H	-150.69	-3.222	0.053
C	-148.779	-2.147	0.052
C	-148.329	-0.828	0.051
C	-154.786	-1.028	0.052
C	-154.337	0.291	0.052
S	-153.41	-2.13	0.051
H	-152.426	1.367	0.053
H	-155.026	1.13	0.053
C	-152.939	0.411	0.053
C	-152.265	-0.803	0.052
C	-159.577	-0.515	0.051
C	-158.462	-1.359	0.051
N	-159.089	0.791	0.052
C	-157.655	0.819	0.052
C	-158.087	-2.755	0.051
O	-158.729	-3.803	0.051
O	-157.014	1.868	0.053
C	-155.914	-3.977	0.05
C	-159.829	2.04	0.052
H	-159.08	2.835	0.053
H	-160.453	2.138	-0.842
H	-160.453	2.137	0.946
H	-155.29	-4.075	-0.844
H	-155.29	-4.076	0.944
H	-156.664	-4.771	0.05
N	-156.653	-2.727	0.051
C	-157.279	-0.577	0.052
C	-156.164	-1.421	0.051
C	-163.476	-1.13	0.056
C	-162.807	-2.343	0.054
S	-162.334	0.195	0.044
H	-160.717	-3.064	0.053
H	-163.321	-3.298	0.067
C	-161.406	-2.225	0.05
C	-160.956	-0.908	0.05
C	-167.419	-1.102	0.057
C	-166.969	0.215	0.057
S	-166.041	-2.205	0.051
H	-165.054	1.288	0.075
H	-167.658	1.054	0.06
C	-165.569	0.333	0.061
C	-164.899	-0.879	0.064
C	-172.211	-0.589	0.058
C	-171.096	-1.433	0.058
N	-171.722	0.718	0.058
C	-170.288	0.745	0.058
C	-170.72	-2.829	0.059
O	-171.362	-3.878	0.06
O	-169.646	1.794	0.058
C	-168.546	-4.05	0.059
C	-172.461	1.967	0.057
H	-173.085	2.066	0.951
H	-171.711	2.761	0.057
H	-173.085	2.065	-0.837
H	-167.922	-4.148	-0.835
H	-167.922	-4.147	0.953
H	-169.295	-4.845	0.06
N	-169.286	-2.801	0.059
C	-169.913	-0.65	0.058
C	-168.798	-1.495	0.058
C	-176.11	-1.206	0.059
C	-175.436	-2.421	0.06
S	-174.965	0.12	0.058
H	-173.349	-3.14	0.06
H	-175.949	-3.377	0.06
C	-174.038	-2.301	0.059
C	-173.589	-0.982	0.059
C	-180.046	-1.182	0.059
C	-179.596	0.137	0.06
S	-178.669	-2.285	0.058
H	-177.685	1.212	0.061
H	-180.286	0.976	0.06
C	-178.198	0.256	0.06
C	-177.525	-0.958	0.059
C	-184.836	-0.669	0.059
C	-183.721	-1.514	0.058
N	-184.349	0.636	0.059
C	-182.915	0.665	0.06
C	-183.346	-2.91	0.058
O	-183.989	-3.958	0.058
O	-182.273	1.713	0.061
C	-181.173	-4.132	0.057
C	-185.088	1.886	0.06
H	-184.339	2.68	0.06
H	-185.712	1.984	-0.834
H	-185.713	1.983	0.954
H	-180.549	-4.23	-0.837
H	-180.549	-4.231	0.952
H	-181.923	-4.925	0.057
N	-181.912	-2.882	0.058
C	-182.539	-0.731	0.059
C	-181.424	-1.576	0.059
C	-188.736	-1.285	0.064
C	-188.066	-2.498	0.061
S	-187.594	0.04	0.051
H	-185.977	-3.219	0.06
H	-188.581	-3.452	0.075
C	-186.665	-2.379	0.057
C	-186.215	-1.062	0.057
C	-192.679	-1.257	0.064
C	-192.229	0.06	0.065
S	-191.301	-2.359	0.059
H	-190.313	1.133	0.082
H	-192.918	0.9	0.067
C	-190.828	0.179	0.069
C	-190.158	-1.034	0.071
C	-197.47	-0.743	0.066
C	-196.356	-1.588	0.066
N	-196.982	0.563	0.065
C	-195.548	0.591	0.065
C	-195.979	-2.984	0.067
O	-196.621	-4.032	0.067
O	-194.906	1.639	0.065
C	-193.806	-4.205	0.067
C	-197.721	1.813	0.065
H	-198.345	1.912	0.959
H	-196.971	2.606	0.064
H	-198.345	1.911	-0.829
H	-193.182	-4.303	-0.827
H	-193.181	-4.302	0.961
H	-194.555	-4.999	0.067
N	-194.546	-2.955	0.066
C	-195.173	-0.805	0.065
C	-194.058	-1.65	0.066
C	-201.369	-1.361	0.067
C	-200.696	-2.575	0.067
S	-200.225	-0.034	0.066
H	-198.608	-3.294	0.067
H	-201.209	-3.531	0.067
C	-199.298	-2.456	0.067
C	-198.849	-1.137	0.066
C	-205.305	-1.337	0.066
C	-204.856	-0.018	0.067
S	-203.929	-2.439	0.066
H	-202.945	1.058	0.068
H	-205.546	0.821	0.067
C	-203.458	0.102	0.067
C	-202.785	-1.113	0.067
C	-210.096	-0.824	0.066
C	-208.981	-1.669	0.066
N	-209.608	0.482	0.067
C	-208.174	0.51	0.067
C	-208.606	-3.064	0.065
O	-209.248	-4.113	0.065
O	-207.533	1.559	0.068
C	-206.433	-4.286	0.065
C	-210.348	1.731	0.067
H	-209.599	2.526	0.068
H	-210.972	1.829	-0.827
H	-210.973	1.828	0.961
H	-205.809	-4.384	-0.829
H	-205.809	-4.385	0.959
H	-207.183	-5.08	0.064
N	-207.172	-3.037	0.065
C	-207.798	-0.886	0.066
C	-206.684	-1.73	0.066
C	-213.996	-1.439	0.071
C	-213.326	-2.652	0.069
S	-212.853	-0.114	0.058
H	-211.236	-3.373	0.068
H	-213.841	-3.607	0.082
C	-211.925	-2.534	0.065
C	-211.475	-1.217	0.064
C	-217.938	-1.411	0.071
C	-217.489	-0.094	0.072
S	-216.56	-2.514	0.066
H	-215.573	0.979	0.089
H	-218.177	0.745	0.075
C	-216.088	0.024	0.076
C	-215.418	-1.189	0.078
C	-222.73	-0.898	0.073
C	-221.615	-1.742	0.073
N	-222.241	0.408	0.072
C	-220.808	0.436	0.072
C	-221.239	-3.138	0.074
O	-221.881	-4.187	0.075
O	-220.165	1.484	0.072
C	-219.065	-4.359	0.074
C	-222.981	1.658	0.072
H	-223.604	1.757	0.966
H	-222.231	2.452	0.071
H	-223.605	1.756	-0.822
H	-218.441	-4.457	-0.82
H	-218.441	-4.457	0.968
H	-219.814	-5.154	0.074
N	-219.805	-3.11	0.074
C	-220.433	-0.96	0.073
C	-219.317	-1.804	0.073
C	-226.629	-1.516	0.074
C	-225.956	-2.73	0.074
S	-225.484	-0.189	0.073
H	-223.868	-3.449	0.074
H	-226.468	-3.686	0.075
C	-224.558	-2.61	0.074
C	-224.108	-1.291	0.073
C	-230.565	-1.491	0.074
C	-230.116	-0.172	0.074
S	-229.189	-2.594	0.073
H	-228.205	0.903	0.075
H	-230.805	0.666	0.075
C	-228.718	-0.053	0.075
C	-228.044	-1.267	0.074
C	-235.356	-0.979	0.073
C	-234.24	-1.823	0.073
N	-234.868	0.327	0.074
C	-233.434	0.356	0.074
C	-233.865	-3.219	0.073
O	-234.508	-4.267	0.072
O	-232.792	1.404	0.075
C	-231.693	-4.441	0.072
C	-235.608	1.577	0.074
H	-234.859	2.371	0.075
H	-236.232	1.675	-0.82
H	-236.232	1.674	0.968
H	-231.068	-4.539	-0.822
H	-231.069	-4.54	0.966
H	-232.442	-5.235	0.072
N	-232.432	-3.191	0.073
C	-233.058	-1.04	0.073
C	-231.943	-1.885	0.073
C	-239.255	-1.594	0.078
C	-238.585	-2.807	0.076
S	-238.113	-0.269	0.066
H	-236.496	-3.528	0.075
H	-239.1	-3.762	0.089
C	-237.184	-2.688	0.072
C	-236.735	-1.372	0.071
H	12.995	0.091	0.021
H	-240.332	-1.482	0.086
