382
DPPTTFF_10
C	3.023	0.631	0.225
C	3.95	1.449	-0.404
S	3.841	-0.763	0.969
C	5.283	1.021	-0.273
C	5.384	-0.158	0.455
F	7.07	-1.71	1.225
F	3.631	2.534	-1.124
S	6.829	1.603	-0.833
C	6.722	-0.593	0.564
C	7.643	0.224	-0.059
C	-1.588	-0.741	0.299
C	-0.652	0.282	0.39
N	-0.889	-1.949	0.286
C	0.529	-1.728	0.353
C	-0.529	1.728	0.353
O	-1.343	2.639	0.417
O	1.343	-2.639	0.418
C	1.411	3.295	0.475
C	-1.411	-3.295	0.475
H	-1.71	-3.751	-0.471
H	-0.605	-3.886	0.914
H	-2.269	-3.276	1.153
H	2.269	3.276	1.152
H	1.71	3.751	-0.471
H	0.605	3.886	0.913
N	0.889	1.949	0.285
C	0.652	-0.282	0.39
C	1.588	0.741	0.299
C	-7.643	-0.224	-0.059
C	-6.722	0.593	0.564
S	-6.829	-1.603	-0.832
C	-5.384	0.159	0.455
C	-5.283	-1.022	-0.272
F	-3.631	-2.534	-1.123
F	-7.07	1.71	1.224
S	-3.841	0.763	0.968
C	-3.95	-1.449	-0.404
C	-3.023	-0.631	0.226
C	-13.691	0.355	0.17
C	-12.764	1.173	-0.46
S	-12.873	-1.039	0.913
C	-11.431	0.745	-0.329
C	-11.33	-0.435	0.4
F	-9.644	-1.986	1.169
F	-13.083	2.258	-1.18
S	-9.886	1.327	-0.889
C	-9.992	-0.869	0.508
C	-9.071	-0.053	-0.115
C	-18.302	-1.018	0.243
C	-17.366	0.005	0.334
N	-17.604	-2.225	0.23
C	-16.185	-2.004	0.297
C	-17.243	1.451	0.297
O	-18.057	2.363	0.361
O	-15.372	-2.915	0.362
C	-15.303	3.018	0.419
C	-18.125	-3.571	0.419
H	-18.424	-4.027	-0.526
H	-17.319	-4.162	0.858
H	-18.983	-3.552	1.097
H	-14.445	2.999	1.096
H	-15.004	3.474	-0.527
H	-16.109	3.609	0.857
N	-15.825	1.672	0.23
C	-16.062	-0.558	0.334
C	-15.126	0.465	0.243
C	-24.358	-0.5	-0.115
C	-23.436	0.316	0.508
S	-23.543	-1.88	-0.888
C	-22.098	-0.118	0.399
C	-21.997	-1.298	-0.328
F	-20.346	-2.811	-1.179
F	-23.784	1.434	1.168
S	-20.555	0.486	0.913
C	-20.664	-1.726	-0.459
C	-19.737	-0.908	0.17
C	-30.405	0.078	0.114
C	-29.479	0.896	-0.516
S	-29.587	-1.315	0.857
C	-28.145	0.469	-0.385
C	-28.044	-0.711	0.344
F	-26.358	-2.262	1.113
F	-29.797	1.981	-1.236
S	-26.6	1.05	-0.944
C	-26.707	-1.145	0.453
C	-25.785	-0.329	-0.171
C	-35.016	-1.294	0.187
C	-34.081	-0.271	0.278
N	-34.318	-2.502	0.174
C	-32.899	-2.281	0.241
C	-33.957	1.175	0.241
O	-34.771	2.086	0.305
O	-32.086	-3.192	0.306
C	-32.017	2.742	0.363
C	-34.84	-3.847	0.364
H	-35.138	-4.304	-0.582
H	-34.033	-4.438	0.802
H	-35.697	-3.828	1.041
H	-31.159	2.723	1.04
H	-31.718	3.198	-0.583
H	-32.823	3.333	0.801
N	-32.539	1.396	0.174
C	-32.776	-0.835	0.278
C	-31.84	0.188	0.187
C	-41.072	-0.777	-0.171
C	-40.15	0.04	0.452
S	-40.257	-2.156	-0.944
C	-38.812	-0.394	0.344
C	-38.712	-1.574	-0.384
F	-37.06	-3.087	-1.235
F	-40.498	1.157	1.112
S	-37.269	0.21	0.857
C	-37.378	-2.002	-0.515
C	-36.451	-1.184	0.114
C	-47.119	-0.198	0.058
C	-46.193	0.62	-0.572
S	-46.302	-1.592	0.801
C	-44.859	0.192	-0.44
C	-44.758	-0.988	0.288
F	-43.073	-2.539	1.057
F	-46.511	1.705	-1.292
S	-43.314	0.774	-1.0
C	-43.421	-1.422	0.397
C	-42.499	-0.605	-0.227
C	-51.731	-1.57	0.131
C	-50.795	-0.547	0.222
N	-51.032	-2.778	0.118
C	-49.613	-2.557	0.185
C	-50.671	0.899	0.185
O	-51.485	1.81	0.249
O	-48.8	-3.468	0.25
C	-48.731	2.465	0.307
C	-51.554	-4.124	0.308
H	-51.853	-4.58	-0.638
H	-50.747	-4.715	0.746
H	-52.411	-4.105	0.985
H	-47.873	2.447	0.985
H	-48.432	2.921	-0.639
H	-49.537	3.057	0.745
N	-49.253	1.12	0.118
C	-49.49	-1.111	0.222
C	-48.554	-0.088	0.131
C	-57.786	-1.053	-0.227
C	-56.864	-0.237	0.396
S	-56.971	-2.432	-1.0
C	-55.527	-0.671	0.288
C	-55.426	-1.851	-0.44
F	-53.774	-3.364	-1.291
F	-57.212	0.881	1.056
S	-53.983	-0.066	0.801
C	-54.092	-2.278	-0.571
C	-53.165	-1.46	0.058
C	-63.833	-0.475	0.002
C	-62.907	0.343	-0.628
S	-63.016	-1.868	0.745
C	-61.573	-0.084	-0.496
C	-61.472	-1.264	0.232
F	-59.787	-2.815	1.001
F	-63.225	1.428	-1.348
S	-60.028	0.497	-1.056
C	-60.135	-1.698	0.341
C	-59.213	-0.882	-0.283
C	-68.445	-1.847	0.075
C	-67.509	-0.824	0.166
N	-67.746	-3.055	0.062
C	-66.328	-2.833	0.129
C	-67.385	0.622	0.129
O	-68.199	1.533	0.194
O	-65.514	-3.745	0.194
C	-65.445	2.189	0.251
C	-68.268	-4.4	0.252
H	-68.567	-4.857	-0.694
H	-67.462	-4.991	0.69
H	-69.125	-4.381	0.929
H	-64.588	2.17	0.929
H	-65.146	2.645	-0.695
H	-66.251	2.78	0.689
N	-65.967	0.843	0.062
C	-66.204	-1.387	0.166
C	-65.268	-0.365	0.075
C	-74.5	-1.33	-0.283
C	-73.578	-0.513	0.341
S	-73.685	-2.709	-1.056
C	-72.241	-0.947	0.232
C	-72.14	-2.127	-0.496
F	-70.488	-3.64	-1.347
F	-73.926	0.604	1.001
S	-70.697	-0.343	0.745
C	-70.806	-2.555	-0.627
C	-69.88	-1.737	0.002
C	-80.548	-0.751	-0.054
C	-79.621	0.067	-0.683
S	-79.73	-2.145	0.689
C	-78.287	-0.361	-0.552
C	-78.186	-1.541	0.176
F	-76.501	-3.092	0.945
F	-79.939	1.152	-1.403
S	-76.742	0.221	-1.112
C	-76.849	-1.975	0.285
C	-75.927	-1.158	-0.339
C	-85.159	-2.123	0.019
C	-84.223	-1.1	0.11
N	-84.46	-3.331	0.007
C	-83.042	-3.11	0.074
C	-84.099	0.346	0.073
O	-84.913	1.257	0.138
O	-82.228	-4.021	0.138
C	-82.159	1.913	0.195
C	-84.982	-4.677	0.196
H	-85.281	-5.133	-0.75
H	-84.176	-5.268	0.634
H	-85.84	-4.658	0.874
H	-81.302	1.894	0.873
H	-81.86	2.369	-0.751
H	-82.965	2.504	0.633
N	-82.681	0.567	0.006
C	-82.918	-1.664	0.11
C	-81.982	-0.641	0.019
C	-91.214	-1.606	-0.339
C	-90.292	-0.789	0.285
S	-90.399	-2.985	-1.112
C	-88.955	-1.224	0.176
C	-88.854	-2.404	-0.552
F	-87.202	-3.916	-1.403
F	-90.64	0.328	0.945
S	-87.411	-0.619	0.689
C	-87.52	-2.831	-0.683
C	-86.594	-2.013	-0.054
C	-97.262	-1.027	-0.11
C	-96.335	-0.21	-0.739
S	-96.444	-2.421	0.633
C	-95.001	-0.637	-0.608
C	-94.901	-1.817	0.12
F	-93.215	-3.368	0.889
F	-96.653	0.875	-1.459
S	-93.456	-0.056	-1.168
C	-93.563	-2.251	0.229
C	-92.641	-1.435	-0.394
C	-101.873	-2.4	-0.036
C	-100.937	-1.377	0.054
N	-101.174	-3.607	-0.049
C	-99.756	-3.386	0.018
C	-100.814	0.069	0.017
O	-101.627	0.98	0.082
O	-98.942	-4.297	0.082
C	-98.873	1.636	0.139
C	-101.696	-4.953	0.14
H	-101.995	-5.409	-0.806
H	-100.89	-5.544	0.578
H	-102.554	-4.934	0.818
H	-98.016	1.617	0.817
H	-98.574	2.092	-0.807
H	-99.68	2.227	0.578
N	-99.395	0.29	-0.05
C	-99.632	-1.94	0.055
C	-98.697	-0.917	-0.037
C	-107.928	-1.882	-0.394
C	-107.006	-1.066	0.229
S	-107.113	-3.262	-1.167
C	-105.669	-1.5	0.12
C	-105.568	-2.68	-0.608
F	-103.916	-4.193	-1.459
F	-107.354	0.052	0.889
S	-104.125	-0.896	0.633
C	-104.234	-3.108	-0.739
C	-103.308	-2.29	-0.11
C	-113.976	-1.304	-0.166
C	-113.049	-0.486	-0.795
S	-113.158	-2.697	0.578
C	-111.716	-0.914	-0.664
C	-111.615	-2.093	0.064
F	-109.929	-3.645	0.833
F	-113.367	0.599	-1.515
S	-110.17	-0.332	-1.224
C	-110.277	-2.528	0.173
C	-109.355	-1.711	-0.45
C	-118.587	-2.676	-0.092
C	-117.651	-1.653	-0.001
N	-117.888	-3.884	-0.105
C	-116.47	-3.663	-0.038
C	-117.528	-0.207	-0.039
O	-118.341	0.704	0.026
O	-115.656	-4.574	0.027
C	-115.588	1.36	0.083
C	-118.41	-5.23	0.084
H	-118.709	-5.686	-0.862
H	-117.604	-5.821	0.523
H	-119.268	-5.211	0.762
H	-114.73	1.341	0.761
H	-115.289	1.816	-0.863
H	-116.394	1.951	0.522
N	-116.109	0.014	-0.106
C	-116.346	-2.217	-0.001
C	-115.411	-1.194	-0.093
C	-124.642	-2.159	-0.45
C	-123.72	-1.342	0.173
S	-123.827	-3.538	-1.223
C	-122.383	-1.776	0.064
C	-122.282	-2.956	-0.664
F	-120.63	-4.469	-1.514
F	-124.069	-0.225	0.833
S	-120.84	-1.172	0.577
C	-120.949	-3.384	-0.795
C	-120.022	-2.566	-0.166
C	-130.69	-1.58	-0.222
C	-129.763	-0.762	-0.851
S	-129.872	-2.974	0.522
C	-128.43	-1.19	-0.72
C	-128.329	-2.37	0.008
F	-126.643	-3.921	0.778
F	-130.082	0.323	-1.571
S	-126.884	-0.608	-1.28
C	-126.991	-2.804	0.117
C	-126.069	-1.987	-0.506
C	-135.301	-2.953	-0.148
C	-134.365	-1.93	-0.057
N	-134.602	-4.16	-0.161
C	-133.184	-3.939	-0.094
C	-134.242	-0.484	-0.095
O	-135.056	0.428	-0.03
O	-132.37	-4.85	-0.029
C	-132.302	1.083	0.028
C	-135.124	-5.506	0.028
H	-135.423	-5.962	-0.918
H	-134.318	-6.097	0.467
H	-135.982	-5.487	0.706
H	-131.444	1.064	0.705
H	-132.003	1.539	-0.918
H	-133.108	1.674	0.466
N	-132.824	-0.262	-0.162
C	-133.061	-2.493	-0.057
C	-132.125	-1.47	-0.148
C	-141.356	-2.435	-0.506
C	-140.435	-1.619	0.117
S	-140.542	-3.815	-1.279
C	-139.097	-2.053	0.008
C	-138.996	-3.233	-0.72
F	-137.344	-4.746	-1.57
F	-140.783	-0.501	0.777
S	-137.554	-1.449	0.521
C	-137.663	-3.66	-0.851
C	-136.736	-2.843	-0.222
C	-147.404	-1.857	-0.278
C	-146.477	-1.039	-0.907
S	-146.586	-3.25	0.466
C	-145.144	-1.466	-0.776
C	-145.043	-2.646	-0.047
F	-143.357	-4.197	0.722
F	-146.796	0.046	-1.627
S	-143.599	-0.885	-1.336
C	-143.705	-3.08	0.061
C	-142.784	-2.264	-0.562
C	-152.015	-3.229	-0.204
C	-151.079	-2.206	-0.113
N	-151.316	-4.437	-0.217
C	-149.898	-4.216	-0.15
C	-150.956	-0.76	-0.15
O	-151.77	0.151	-0.086
O	-149.084	-5.127	-0.085
C	-149.016	0.807	-0.028
C	-151.838	-5.782	-0.028
H	-152.137	-6.239	-0.973
H	-151.032	-6.373	0.411
H	-152.696	-5.763	0.65
H	-148.158	0.788	0.649
H	-148.717	1.263	-0.974
H	-149.822	1.398	0.41
N	-149.538	-0.539	-0.217
C	-149.775	-2.77	-0.113
C	-148.839	-1.747	-0.204
C	-158.071	-2.712	-0.562
C	-157.149	-1.895	0.061
S	-157.256	-4.091	-1.335
C	-155.811	-2.329	-0.048
C	-155.71	-3.509	-0.775
F	-154.059	-5.022	-1.626
F	-157.497	-0.778	0.721
S	-154.268	-1.725	0.466
C	-154.377	-3.937	-0.906
C	-153.45	-3.119	-0.277
H	8.712	0.05	-0.075
H	-159.139	-2.537	-0.578
