502
DPPTVT_10
C	-5.004	-0.14	-0.003
C	-5.491	1.165	0.011
S	-6.351	-1.281	-0.014
H	-7.433	2.185	0.025
H	-4.826	2.023	0.02
C	-6.893	1.245	0.014
C	-7.532	0.013	0.002
C	-0.228	0.506	-0.002
C	-1.32	-0.369	-0.01
N	-0.753	1.798	0.012
C	-2.187	1.786	0.014
C	-1.657	-1.774	-0.025
O	-0.986	-2.805	-0.037
O	-2.858	2.817	0.025
C	-3.795	-3.055	-0.036
C	-0.049	3.067	0.025
H	-0.821	3.84	0.034
H	0.571	3.192	-0.869
H	0.573	3.173	0.919
H	-4.417	-3.162	-0.93
H	-4.415	-3.18	0.858
H	-3.023	-3.828	-0.045
N	-3.09	-1.786	-0.023
C	-2.524	0.381	-0.001
C	-3.616	-0.494	-0.009
C	3.689	-0.002	-0.013
C	3.049	-1.233	-0.025
S	2.507	1.293	0.003
H	0.982	-2.011	-0.031
H	3.589	-2.174	-0.036
C	1.648	-1.153	-0.023
C	1.16	0.151	-0.008
C	13.982	-0.259	-0.028
S	12.791	1.025	0.022
C	13.348	-1.489	-0.067
C	10.1	0.388	-0.014
C	11.451	-0.113	-0.024
C	11.939	-1.409	-0.064
C	8.977	-0.377	-0.026
C	7.628	0.127	-0.017
C	7.145	1.428	0.001
H	9.993	1.471	0.005
H	9.082	-1.46	-0.042
H	7.792	2.298	0.011
H	5.201	2.456	0.018
H	11.295	-2.281	-0.099
H	13.891	-2.427	-0.112
C	5.74	1.514	0.004
S	6.286	-1.006	-0.03
C	5.097	0.284	-0.011
C	17.926	-0.119	-0.029
C	17.438	1.186	-0.014
S	16.579	-1.26	-0.039
H	15.496	2.206	-0.001
H	18.104	2.044	-0.006
C	16.036	1.266	-0.012
C	15.397	0.034	-0.024
C	22.701	0.527	-0.028
C	21.61	-0.348	-0.036
N	22.176	1.819	-0.014
C	20.742	1.807	-0.012
C	21.273	-1.753	-0.051
O	21.944	-2.784	-0.062
O	20.072	2.838	-0.0
C	19.135	-3.034	-0.061
C	22.88	3.088	-0.001
H	22.109	3.861	0.008
H	23.501	3.213	-0.895
H	23.503	3.194	0.893
H	18.512	-3.14	-0.956
H	18.515	-3.159	0.832
H	19.906	-3.807	-0.07
N	19.839	-1.765	-0.049
C	20.406	0.402	-0.027
C	19.314	-0.473	-0.034
C	26.618	0.019	-0.038
C	25.979	-1.212	-0.051
S	25.437	1.314	-0.023
H	23.911	-1.99	-0.057
H	26.519	-2.153	-0.062
C	24.577	-1.132	-0.049
C	24.09	0.172	-0.034
C	36.911	-0.238	-0.054
S	35.72	1.046	-0.003
C	36.277	-1.468	-0.093
C	33.03	0.409	-0.04
C	34.381	-0.092	-0.05
C	34.868	-1.388	-0.09
C	31.906	-0.356	-0.052
C	30.557	0.148	-0.043
C	30.075	1.449	-0.025
H	32.922	1.492	-0.021
H	32.012	-1.439	-0.068
H	30.722	2.319	-0.015
H	28.131	2.477	-0.008
H	34.225	-2.26	-0.125
H	36.821	-2.406	-0.138
C	28.669	1.535	-0.022
S	29.216	-0.985	-0.056
C	28.027	0.305	-0.037
C	40.855	-0.098	-0.055
C	40.368	1.207	-0.04
S	39.508	-1.239	-0.065
H	38.426	2.227	-0.027
H	41.033	2.065	-0.032
C	38.966	1.287	-0.037
C	38.327	0.055	-0.05
C	45.631	0.548	-0.054
C	44.539	-0.327	-0.062
N	45.106	1.84	-0.039
C	43.672	1.828	-0.038
C	44.202	-1.732	-0.076
O	44.873	-2.763	-0.088
O	43.001	2.859	-0.026
C	42.064	-3.013	-0.087
C	45.81	3.109	-0.027
H	45.038	3.882	-0.018
H	46.43	3.234	-0.92
H	46.432	3.215	0.867
H	41.442	-3.119	-0.981
H	41.444	-3.138	0.806
H	42.836	-3.786	-0.096
N	42.769	-1.744	-0.075
C	43.335	0.423	-0.052
C	42.243	-0.452	-0.06
C	49.548	0.04	-0.064
C	48.908	-1.191	-0.077
S	48.366	1.335	-0.049
H	46.841	-1.969	-0.083
H	49.448	-2.132	-0.088
C	47.507	-1.111	-0.074
C	47.019	0.193	-0.059
C	59.841	-0.217	-0.08
S	58.65	1.067	-0.029
C	59.207	-1.447	-0.119
C	55.959	0.43	-0.066
C	57.31	-0.071	-0.075
C	57.798	-1.367	-0.115
C	54.836	-0.335	-0.077
C	53.487	0.169	-0.069
C	53.004	1.47	-0.051
H	55.852	1.513	-0.046
H	54.941	-1.418	-0.094
H	53.651	2.34	-0.041
H	51.06	2.498	-0.034
H	57.154	-2.239	-0.15
H	59.75	-2.385	-0.163
C	51.599	1.556	-0.047
S	52.145	-0.964	-0.082
C	50.956	0.326	-0.063
C	63.785	-0.077	-0.08
C	63.297	1.228	-0.066
S	62.438	-1.218	-0.091
H	61.355	2.248	-0.053
H	63.963	2.086	-0.058
C	61.895	1.308	-0.063
C	61.256	0.076	-0.075
C	68.56	0.569	-0.08
C	67.469	-0.306	-0.088
N	68.035	1.861	-0.065
C	66.601	1.849	-0.064
C	67.132	-1.711	-0.102
O	67.803	-2.742	-0.114
O	65.931	2.88	-0.052
C	64.994	-2.992	-0.113
C	68.739	3.13	-0.053
H	67.968	3.903	-0.044
H	69.36	3.255	-0.946
H	69.362	3.236	0.842
H	64.371	-3.098	-1.007
H	64.374	-3.117	0.781
H	65.765	-3.765	-0.122
N	65.698	-1.723	-0.1
C	66.265	0.444	-0.078
C	65.173	-0.431	-0.086
C	72.477	0.061	-0.09
C	71.838	-1.17	-0.103
S	71.296	1.356	-0.074
H	69.77	-1.948	-0.109
H	72.378	-2.111	-0.113
C	70.436	-1.09	-0.1
C	69.949	0.214	-0.085
C	82.77	-0.196	-0.106
S	81.579	1.088	-0.055
C	82.136	-1.426	-0.144
C	78.889	0.451	-0.091
C	80.24	-0.05	-0.101
C	80.727	-1.346	-0.141
C	77.765	-0.314	-0.103
C	76.416	0.19	-0.094
C	75.934	1.491	-0.077
H	78.781	1.534	-0.072
H	77.871	-1.397	-0.12
H	76.581	2.361	-0.066
H	73.99	2.519	-0.06
H	80.084	-2.218	-0.176
H	82.68	-2.364	-0.189
C	74.528	1.577	-0.073
S	75.075	-0.943	-0.107
C	73.886	0.347	-0.088
C	86.714	-0.056	-0.106
C	86.227	1.249	-0.092
S	85.367	-1.197	-0.117
H	84.285	2.269	-0.078
H	86.892	2.107	-0.083
C	84.825	1.329	-0.089
C	84.186	0.097	-0.101
C	91.49	0.59	-0.105
C	90.398	-0.285	-0.113
N	90.965	1.882	-0.091
C	89.531	1.87	-0.089
C	90.061	-1.69	-0.128
O	90.732	-2.721	-0.14
O	88.86	2.901	-0.078
C	87.923	-2.971	-0.139
C	91.669	3.151	-0.078
H	90.897	3.924	-0.069
H	92.289	3.276	-0.972
H	92.291	3.257	0.816
H	87.301	-3.077	-1.033
H	87.303	-3.096	0.755
H	88.695	-3.744	-0.148
N	88.628	-1.702	-0.126
C	89.194	0.465	-0.104
C	88.102	-0.41	-0.112
C	95.407	0.082	-0.116
C	94.767	-1.149	-0.128
S	94.225	1.377	-0.1
H	92.7	-1.927	-0.134
H	95.307	-2.09	-0.139
C	93.366	-1.069	-0.126
C	92.878	0.235	-0.111
C	105.7	-0.175	-0.131
S	104.509	1.109	-0.081
C	105.066	-1.405	-0.17
C	101.818	0.472	-0.117
C	103.169	-0.029	-0.127
C	103.657	-1.325	-0.167
C	100.695	-0.293	-0.129
C	99.346	0.211	-0.12
C	98.863	1.512	-0.102
H	101.711	1.555	-0.098
H	100.8	-1.376	-0.145
H	99.51	2.382	-0.092
H	96.919	2.54	-0.085
H	103.013	-2.197	-0.202
H	105.609	-2.343	-0.215
C	97.458	1.598	-0.099
S	98.004	-0.922	-0.133
C	96.815	0.368	-0.114
C	109.644	-0.035	-0.132
C	109.156	1.27	-0.117
S	108.297	-1.176	-0.142
H	107.214	2.29	-0.104
H	109.822	2.128	-0.109
C	107.754	1.35	-0.115
C	107.115	0.118	-0.127
C	114.419	0.611	-0.131
C	113.328	-0.264	-0.139
N	113.894	1.903	-0.117
C	112.46	1.891	-0.115
C	112.991	-1.669	-0.154
O	113.662	-2.7	-0.165
O	111.79	2.922	-0.103
C	110.853	-2.95	-0.164
C	114.598	3.172	-0.104
H	113.827	3.945	-0.095
H	115.219	3.297	-0.998
H	115.221	3.278	0.79
H	110.23	-3.056	-1.059
H	110.233	-3.075	0.729
H	111.624	-3.723	-0.173
N	111.557	-1.681	-0.152
C	112.124	0.486	-0.13
C	111.032	-0.389	-0.137
C	118.336	0.104	-0.141
C	117.697	-1.128	-0.154
S	117.155	1.398	-0.126
H	115.629	-1.906	-0.16
H	118.237	-2.069	-0.165
C	116.295	-1.048	-0.152
C	115.808	0.256	-0.137
C	128.629	-0.154	-0.157
S	127.438	1.13	-0.106
C	127.995	-1.384	-0.196
C	124.748	0.493	-0.143
C	126.099	-0.008	-0.153
C	126.586	-1.304	-0.193
C	123.624	-0.272	-0.155
C	122.275	0.232	-0.146
C	121.793	1.533	-0.128
H	124.64	1.576	-0.124
H	123.73	-1.355	-0.171
H	122.44	2.403	-0.118
H	119.849	2.561	-0.111
H	125.943	-2.176	-0.228
H	128.539	-2.322	-0.241
C	120.387	1.619	-0.125
S	120.934	-0.901	-0.159
C	119.745	0.389	-0.14
C	132.573	-0.014	-0.158
C	132.086	1.291	-0.143
S	131.226	-1.155	-0.168
H	130.144	2.311	-0.13
H	132.751	2.149	-0.135
C	130.684	1.371	-0.14
C	130.045	0.139	-0.153
C	137.349	0.632	-0.157
C	136.257	-0.243	-0.165
N	136.824	1.924	-0.142
C	135.39	1.912	-0.141
C	135.92	-1.648	-0.179
O	136.591	-2.679	-0.191
O	134.719	2.943	-0.129
C	133.782	-2.929	-0.19
C	137.528	3.193	-0.13
H	136.756	3.966	-0.121
H	138.148	3.318	-1.023
H	138.15	3.299	0.764
H	133.16	-3.035	-1.084
H	133.162	-3.054	0.703
H	134.554	-3.702	-0.199
N	134.487	-1.66	-0.178
C	135.053	0.507	-0.155
C	133.961	-0.368	-0.163
C	141.266	0.125	-0.167
C	140.626	-1.107	-0.18
S	140.084	1.419	-0.152
H	138.559	-1.885	-0.186
H	141.166	-2.048	-0.191
C	139.225	-1.027	-0.177
C	138.737	0.277	-0.162
C	151.559	-0.133	-0.183
S	150.368	1.151	-0.132
C	150.925	-1.363	-0.222
C	147.677	0.514	-0.169
C	149.028	0.013	-0.178
C	149.516	-1.283	-0.218
C	146.554	-0.251	-0.18
C	145.205	0.253	-0.172
C	144.722	1.554	-0.154
H	147.57	1.597	-0.149
H	146.659	-1.334	-0.197
H	145.369	2.424	-0.144
H	142.778	2.582	-0.137
H	148.872	-2.155	-0.253
H	151.468	-2.301	-0.266
C	143.317	1.64	-0.15
S	143.863	-0.88	-0.185
C	142.674	0.41	-0.166
C	155.503	0.007	-0.183
C	155.015	1.312	-0.169
S	154.156	-1.134	-0.194
H	153.073	2.332	-0.156
H	155.681	2.17	-0.161
C	153.613	1.392	-0.166
C	152.974	0.16	-0.178
C	160.278	0.653	-0.183
C	159.187	-0.222	-0.191
N	159.753	1.945	-0.168
C	158.319	1.933	-0.167
C	158.85	-1.627	-0.205
O	159.521	-2.658	-0.217
O	157.649	2.964	-0.155
C	156.712	-2.908	-0.216
C	160.457	3.214	-0.156
H	159.686	3.987	-0.147
H	161.078	3.339	-1.049
H	161.08	3.32	0.739
H	156.089	-3.014	-1.11
H	156.092	-3.033	0.678
H	157.483	-3.681	-0.225
N	157.416	-1.639	-0.203
C	157.983	0.528	-0.181
C	156.891	-0.347	-0.189
C	164.195	0.146	-0.193
C	163.556	-1.086	-0.206
S	163.014	1.44	-0.177
H	161.488	-1.864	-0.212
H	164.096	-2.027	-0.216
C	162.154	-1.006	-0.203
C	161.667	0.298	-0.188
C	174.488	-0.112	-0.209
S	173.297	1.172	-0.158
C	173.854	-1.342	-0.247
C	170.607	0.535	-0.194
C	171.958	0.034	-0.204
C	172.445	-1.262	-0.244
C	169.483	-0.23	-0.206
C	168.134	0.274	-0.197
C	167.652	1.575	-0.18
H	170.499	1.618	-0.175
H	169.589	-1.313	-0.223
H	168.299	2.445	-0.169
H	165.708	2.603	-0.163
H	171.802	-2.134	-0.279
H	174.398	-2.28	-0.292
C	166.246	1.661	-0.176
S	166.793	-0.859	-0.21
C	165.604	0.431	-0.191
C	178.432	0.028	-0.209
C	177.945	1.333	-0.195
S	177.085	-1.113	-0.22
H	176.003	2.353	-0.181
H	178.61	2.191	-0.186
C	176.543	1.413	-0.192
C	175.904	0.181	-0.204
C	183.208	0.674	-0.208
C	182.116	-0.201	-0.216
N	182.683	1.966	-0.194
C	181.249	1.954	-0.192
C	181.779	-1.606	-0.231
O	182.45	-2.637	-0.243
O	180.578	2.985	-0.181
C	179.641	-2.887	-0.242
C	183.387	3.235	-0.181
H	182.615	4.008	-0.172
H	184.007	3.36	-1.075
H	184.009	3.341	0.713
H	179.019	-2.993	-1.136
H	179.021	-3.012	0.652
H	180.413	-3.66	-0.251
N	180.346	-1.618	-0.229
C	180.912	0.549	-0.207
C	179.82	-0.326	-0.215
C	187.125	0.167	-0.219
C	186.485	-1.065	-0.231
S	185.943	1.461	-0.203
H	184.418	-1.843	-0.237
H	187.025	-2.006	-0.242
C	185.084	-0.985	-0.229
C	184.596	0.319	-0.214
C	197.418	-0.091	-0.234
S	196.227	1.193	-0.184
C	196.784	-1.321	-0.273
C	193.536	0.556	-0.22
C	194.887	0.055	-0.23
C	195.375	-1.241	-0.27
C	192.413	-0.209	-0.232
C	191.064	0.295	-0.223
C	190.581	1.596	-0.205
H	193.429	1.639	-0.201
H	192.518	-1.292	-0.248
H	191.228	2.466	-0.195
H	188.637	2.624	-0.188
H	194.731	-2.113	-0.305
H	197.327	-2.259	-0.318
C	189.176	1.682	-0.202
S	189.722	-0.838	-0.236
C	188.533	0.452	-0.217
C	201.362	0.049	-0.235
C	200.874	1.354	-0.22
S	200.015	-1.092	-0.245
H	198.932	2.374	-0.207
H	201.54	2.212	-0.212
C	199.472	1.434	-0.218
C	198.833	0.202	-0.23
C	206.137	0.695	-0.234
C	205.046	-0.18	-0.242
N	205.612	1.987	-0.22
C	204.178	1.975	-0.218
C	204.709	-1.585	-0.257
O	205.38	-2.616	-0.268
O	203.508	3.006	-0.206
C	202.571	-2.866	-0.267
C	206.316	3.256	-0.207
H	205.545	4.029	-0.198
H	206.937	3.381	-1.101
H	206.939	3.362	0.687
H	201.948	-2.972	-1.162
H	201.951	-2.991	0.626
H	203.342	-3.639	-0.276
N	203.275	-1.597	-0.255
C	203.842	0.57	-0.233
C	202.75	-0.305	-0.24
C	210.054	0.188	-0.244
C	209.415	-1.044	-0.257
S	208.873	1.482	-0.229
H	207.347	-1.822	-0.263
H	209.955	-1.985	-0.268
C	208.013	-0.964	-0.255
C	207.526	0.34	-0.24
C	220.347	-0.07	-0.26
S	219.156	1.214	-0.209
C	219.713	-1.3	-0.299
C	216.466	0.577	-0.246
C	217.817	0.076	-0.256
C	218.304	-1.22	-0.296
C	215.342	-0.188	-0.258
C	213.993	0.316	-0.249
C	213.511	1.617	-0.231
H	216.358	1.66	-0.227
H	215.448	-1.271	-0.274
H	214.158	2.487	-0.221
H	211.567	2.645	-0.214
H	217.661	-2.092	-0.331
H	220.257	-2.238	-0.344
C	212.105	1.703	-0.228
S	212.652	-0.817	-0.262
C	211.463	0.473	-0.243
H	-8.605	-0.128	0.002
H	221.419	0.076	-0.261
