382
F8BT_10
C	0.37	-1.32	-0.286
C	0.925	-2.565	-0.65
C	1.241	-0.272	0.076
C	3.149	-1.735	-0.277
C	2.301	-2.78	-0.647
C	2.612	-0.482	0.081
C	3.723	0.505	0.44
C	4.965	-0.363	0.239
C	4.608	-1.661	-0.179
C	5.599	-2.614	-0.426
C	3.726	1.718	-0.518
C	3.601	0.988	1.903
H	3.597	0.143	2.599
H	2.673	1.554	2.046
H	4.439	1.643	2.164
H	2.8	2.294	-0.413
H	3.812	1.396	-1.56
H	4.568	2.383	-0.296
H	2.699	-3.748	-0.942
H	0.264	-3.366	-0.969
H	0.829	0.693	0.349
H	5.342	-3.614	-0.765
H	6.57	0.983	0.732
H	7.709	-2.99	-0.468
C	6.296	-0.017	0.414
C	6.935	-2.262	-0.247
C	7.308	-0.971	0.179
C	-4.044	-0.917	-0.206
C	-3.214	0.191	-0.602
C	-3.36	-2.067	0.14
N	-3.654	1.39	-1.002
N	-1.149	1.19	-1.05
S	-2.329	2.284	-1.375
H	-1.509	-3.12	0.44
H	-3.926	-2.927	0.486
C	-1.944	-2.18	0.113
C	-1.758	0.074	-0.63
C	-1.1	-1.152	-0.262
C	-12.46	-1.199	-0.639
C	-11.905	-2.443	-1.002
C	-11.588	-0.15	-0.276
C	-9.68	-1.613	-0.629
C	-10.529	-2.658	-1.0
C	-10.218	-0.36	-0.271
C	-9.107	0.627	0.087
C	-7.865	-0.242	-0.114
C	-8.221	-1.54	-0.531
C	-7.23	-2.492	-0.778
C	-9.104	1.84	-0.87
C	-9.229	1.109	1.55
H	-9.233	0.264	2.246
H	-10.156	1.676	1.694
H	-8.39	1.765	1.812
H	-10.03	2.416	-0.766
H	-9.018	1.518	-1.913
H	-8.261	2.505	-0.648
H	-10.131	-3.626	-1.295
H	-12.565	-3.244	-1.321
H	-12.0	0.815	-0.003
H	-7.488	-3.493	-1.117
H	-6.26	1.104	0.38
H	-5.121	-2.869	-0.821
C	-6.533	0.105	0.062
C	-5.895	-2.14	-0.599
C	-5.522	-0.849	-0.174
C	-16.874	-0.795	-0.558
C	-16.043	0.312	-0.955
C	-16.19	-1.945	-0.212
N	-16.484	1.512	-1.354
N	-13.979	1.311	-1.403
S	-15.158	2.406	-1.728
H	-14.339	-2.998	0.087
H	-16.756	-2.805	0.134
C	-14.774	-2.058	-0.24
C	-14.588	0.196	-0.983
C	-13.93	-1.031	-0.615
C	-25.289	-1.077	-0.991
C	-24.734	-2.321	-1.355
C	-24.418	-0.028	-0.629
C	-22.51	-1.491	-0.982
C	-23.359	-2.537	-1.352
C	-23.047	-0.239	-0.624
C	-21.936	0.749	-0.265
C	-20.694	-0.12	-0.466
C	-21.051	-1.418	-0.884
C	-20.06	-2.371	-1.131
C	-21.933	1.962	-1.223
C	-22.059	1.231	1.198
H	-22.062	0.386	1.894
H	-22.986	1.797	1.341
H	-21.22	1.887	1.459
H	-22.86	2.538	-1.118
H	-21.848	1.64	-2.265
H	-21.091	2.627	-1.001
H	-22.96	-3.504	-1.647
H	-25.395	-3.122	-1.674
H	-24.83	0.936	-0.356
H	-20.317	-3.371	-1.47
H	-19.089	1.226	0.027
H	-17.95	-2.747	-1.173
C	-19.363	0.227	-0.291
C	-18.725	-2.019	-0.952
C	-18.352	-0.727	-0.526
C	-29.704	-0.674	-0.911
C	-28.873	0.434	-1.307
C	-29.019	-1.824	-0.565
N	-29.313	1.633	-1.707
N	-26.808	1.433	-1.755
S	-27.988	2.528	-2.08
H	-27.169	-2.876	-0.265
H	-29.586	-2.683	-0.219
C	-27.604	-1.937	-0.592
C	-27.418	0.318	-1.335
C	-26.759	-0.909	-0.967
C	-38.119	-0.955	-1.344
C	-37.564	-2.2	-1.707
C	-37.248	0.093	-0.981
C	-35.34	-1.37	-1.334
C	-36.188	-2.415	-1.705
C	-35.877	-0.117	-0.976
C	-34.766	0.87	-0.618
C	-33.524	0.002	-0.819
C	-33.881	-1.296	-1.236
C	-32.89	-2.249	-1.484
C	-34.763	2.083	-1.575
C	-34.888	1.353	0.845
H	-34.892	0.508	1.541
H	-35.816	1.919	0.989
H	-34.05	2.009	1.107
H	-35.689	2.66	-1.471
H	-34.678	1.761	-2.618
H	-33.921	2.748	-1.353
H	-35.79	-3.382	-2.0
H	-38.225	-3.0	-2.026
H	-37.66	1.058	-0.708
H	-33.147	-3.249	-1.822
H	-31.919	1.348	-0.325
H	-30.78	-2.625	-1.526
C	-32.193	0.348	-0.643
C	-31.555	-1.897	-1.304
C	-31.181	-0.606	-0.879
C	-42.533	-0.552	-1.263
C	-41.703	0.556	-1.66
C	-41.849	-1.702	-0.917
N	-42.143	1.755	-2.059
N	-39.638	1.555	-2.108
S	-40.818	2.649	-2.433
H	-39.998	-2.755	-0.618
H	-42.415	-2.561	-0.571
C	-40.434	-1.815	-0.945
C	-40.248	0.44	-1.688
C	-39.589	-0.787	-1.32
C	-50.949	-0.833	-1.696
C	-50.394	-2.078	-2.06
C	-50.077	0.215	-1.334
C	-48.169	-1.248	-1.687
C	-49.018	-2.293	-2.057
C	-48.707	0.005	-1.329
C	-47.596	0.992	-0.97
C	-46.354	0.124	-1.171
C	-46.71	-1.174	-1.589
C	-45.72	-2.127	-1.836
C	-47.593	2.205	-1.928
C	-47.718	1.475	0.493
H	-47.722	0.63	1.189
H	-48.645	2.041	0.636
H	-46.88	2.13	0.754
H	-48.519	2.781	-1.823
H	-47.507	1.883	-2.97
H	-46.75	2.87	-1.706
H	-48.62	-3.261	-2.352
H	-51.055	-2.879	-2.379
H	-50.489	1.18	-1.061
H	-45.977	-3.127	-2.175
H	-44.749	1.47	-0.678
H	-43.61	-2.504	-1.878
C	-45.023	0.47	-0.996
C	-44.384	-1.775	-1.657
C	-44.011	-0.484	-1.231
C	-55.363	-0.43	-1.616
C	-54.532	0.678	-2.012
C	-54.679	-1.58	-1.27
N	-54.973	1.877	-2.412
N	-52.468	1.677	-2.46
S	-53.648	2.771	-2.785
H	-52.828	-2.633	-0.97
H	-55.245	-2.44	-0.924
C	-53.263	-1.693	-1.297
C	-53.077	0.561	-2.04
C	-52.419	-0.665	-1.672
C	-63.779	-0.712	-2.049
C	-63.223	-1.956	-2.412
C	-62.907	0.337	-1.686
C	-60.999	-1.126	-2.039
C	-61.848	-2.172	-2.41
C	-61.537	0.127	-1.681
C	-60.426	1.114	-1.323
C	-59.183	0.245	-1.524
C	-59.54	-1.053	-1.941
C	-58.549	-2.005	-2.189
C	-60.423	2.327	-2.28
C	-60.548	1.596	0.14
H	-60.552	0.751	0.836
H	-61.475	2.163	0.284
H	-59.709	2.252	0.402
H	-61.349	2.903	-2.176
H	-60.337	2.005	-3.323
H	-59.58	2.992	-2.058
H	-61.449	-3.139	-2.705
H	-63.884	-2.757	-2.731
H	-63.319	1.302	-1.413
H	-58.806	-3.006	-2.527
H	-57.579	1.591	-1.03
H	-56.439	-2.382	-2.231
C	-57.852	0.592	-1.348
C	-57.214	-1.653	-2.009
C	-56.841	-0.362	-1.584
C	-68.193	-0.308	-1.968
C	-67.362	0.799	-2.365
C	-67.509	-1.458	-1.622
N	-67.802	1.999	-2.764
N	-65.297	1.798	-2.813
S	-66.477	2.893	-3.138
H	-65.658	-2.511	-1.323
H	-68.075	-2.318	-1.276
C	-66.093	-1.571	-1.65
C	-65.907	0.683	-2.393
C	-65.248	-0.544	-2.025
C	-76.608	-0.59	-2.401
C	-76.053	-1.834	-2.765
C	-75.737	0.459	-2.039
C	-73.829	-1.004	-2.392
C	-74.678	-2.05	-2.762
C	-74.366	0.248	-2.034
C	-73.255	1.236	-1.675
C	-72.013	0.367	-1.876
C	-72.37	-0.931	-2.294
C	-71.379	-1.884	-2.541
C	-73.252	2.449	-2.633
C	-73.377	1.718	-0.212
H	-73.381	0.873	0.484
H	-74.305	2.284	-0.069
H	-72.539	2.374	0.049
H	-74.179	3.025	-2.528
H	-73.167	2.127	-3.675
H	-72.41	3.114	-2.411
H	-74.279	-3.017	-3.057
H	-76.714	-2.635	-3.084
H	-76.149	1.423	-1.766
H	-71.636	-2.884	-2.88
H	-70.408	1.713	-1.383
H	-69.269	-2.26	-2.583
C	-70.682	0.714	-1.701
C	-70.044	-1.532	-2.362
C	-69.67	-0.24	-1.936
C	-81.022	-0.187	-2.321
C	-80.192	0.921	-2.717
C	-80.338	-1.337	-1.975
N	-80.632	2.12	-3.117
N	-78.127	1.92	-3.165
S	-79.307	3.015	-3.49
H	-78.487	-2.389	-1.675
H	-80.905	-2.196	-1.629
C	-78.923	-1.45	-2.002
C	-78.737	0.805	-2.745
C	-78.078	-0.422	-2.377
C	-89.438	-0.468	-2.754
C	-88.883	-1.713	-3.117
C	-88.566	0.58	-2.391
C	-86.658	-0.883	-2.744
C	-87.507	-1.928	-3.115
C	-87.196	0.37	-2.386
C	-86.085	1.357	-2.028
C	-84.843	0.489	-2.229
C	-85.2	-0.809	-2.646
C	-84.209	-1.762	-2.894
C	-86.082	2.57	-2.985
C	-86.207	1.84	-0.565
H	-86.211	0.995	0.131
H	-87.134	2.406	-0.421
H	-85.369	2.496	-0.303
H	-87.008	3.147	-2.881
H	-85.996	2.248	-4.028
H	-85.24	3.235	-2.763
H	-87.109	-2.895	-3.41
H	-89.544	-2.513	-3.436
H	-88.978	1.545	-2.118
H	-84.466	-2.762	-3.232
H	-83.238	1.835	-1.735
H	-82.099	-2.138	-2.936
C	-83.512	0.835	-2.053
C	-82.873	-1.41	-2.714
C	-82.5	-0.119	-2.289
C	-93.852	-0.065	-2.673
C	-93.021	1.043	-3.07
C	-93.168	-1.215	-2.327
N	-93.462	2.242	-3.469
N	-90.957	2.042	-3.518
S	-92.137	3.136	-3.843
H	-91.317	-2.268	-2.028
H	-93.734	-2.074	-1.981
C	-91.752	-1.328	-2.355
C	-91.566	0.927	-3.098
C	-90.908	-0.3	-2.73
C	-102.268	-0.346	-3.106
C	-101.713	-1.591	-3.47
C	-101.396	0.702	-2.744
C	-99.488	-0.761	-3.097
C	-100.337	-1.806	-3.467
C	-100.026	0.492	-2.739
C	-98.915	1.479	-2.38
C	-97.672	0.611	-2.581
C	-98.029	-0.687	-2.999
C	-97.038	-1.64	-3.246
C	-98.912	2.692	-3.338
C	-99.037	1.962	-0.917
H	-99.041	1.117	-0.221
H	-99.964	2.528	-0.774
H	-98.198	2.617	-0.656
H	-99.838	3.268	-3.233
H	-98.826	2.37	-4.38
H	-98.069	3.357	-3.116
H	-99.938	-2.774	-3.762
H	-102.373	-2.392	-3.789
H	-101.808	1.667	-2.471
H	-97.295	-2.64	-3.585
H	-96.068	1.957	-2.088
H	-94.929	-2.016	-3.288
C	-96.341	0.957	-2.406
C	-95.703	-1.288	-3.067
C	-95.33	0.003	-2.641
C	-106.682	0.057	-3.026
C	-105.851	1.165	-3.422
C	-105.998	-1.093	-2.68
N	-106.292	2.364	-3.822
N	-103.786	2.164	-3.87
S	-104.966	3.258	-4.195
H	-104.147	-2.146	-2.38
H	-106.564	-1.953	-2.334
C	-104.582	-1.206	-2.707
C	-104.396	1.048	-3.45
C	-103.738	-0.178	-3.082
C	-115.097	-0.225	-3.459
C	-114.542	-1.469	-3.823
C	-114.226	0.824	-3.097
C	-112.318	-0.639	-3.449
C	-113.167	-1.684	-3.82
C	-112.855	0.614	-3.091
C	-111.744	1.601	-2.733
C	-110.502	0.732	-2.934
C	-110.859	-0.566	-3.351
C	-109.868	-1.518	-3.599
C	-111.741	2.814	-3.69
C	-111.866	2.083	-1.27
H	-111.87	1.238	-0.574
H	-112.794	2.65	-1.126
H	-111.028	2.739	-1.008
H	-112.668	3.39	-3.586
H	-111.656	2.492	-4.733
H	-110.899	3.479	-3.468
H	-112.768	-2.652	-4.115
H	-115.203	-2.27	-4.141
H	-114.638	1.789	-2.823
H	-110.125	-2.519	-3.937
H	-108.897	2.078	-2.44
H	-107.758	-1.895	-3.641
C	-109.171	1.079	-2.758
C	-108.533	-1.166	-3.419
C	-108.159	0.125	-2.994
C	-119.511	0.179	-3.378
C	-118.681	1.286	-3.775
C	-118.827	-0.971	-3.032
N	-119.121	2.486	-4.174
N	-116.616	2.285	-4.223
S	-117.796	3.38	-4.548
H	-116.977	-2.024	-2.733
H	-119.394	-1.831	-2.686
C	-117.412	-1.084	-3.06
C	-117.226	1.17	-3.803
C	-116.567	-0.057	-3.435
H	8.35	-0.717	0.322
H	-120.592	0.242	-3.353
