422
FU_DPP-b12_2_8x2_FU_BTT_10
C	-4.336	-0.725	0.0
C	-4.496	-2.1	0.0
O	-5.574	-0.122	0.0
H	-3.681	-2.812	0.001
H	-6.375	-3.309	0.0
C	-5.885	-2.346	0.0
C	-6.514	-1.114	0.0
C	0.357	0.207	0.0
C	-0.952	0.686	0.0
N	0.292	-1.183	0.0
C	-1.069	-1.639	0.0
C	-1.723	1.909	-0.0
O	-1.412	3.097	-0.0
O	-1.381	-2.828	0.0
C	-4.184	2.405	-0.0
C	1.391	-2.135	0.0
H	0.933	-3.126	0.001
H	2.017	-2.02	-0.889
H	2.017	-2.02	0.89
H	-4.809	2.289	-0.89
H	-4.809	2.289	0.89
H	-3.726	3.395	-0.0
N	-3.085	1.453	-0.0
C	-1.841	-0.416	0.0
C	-3.15	0.062	0.0
C	3.721	1.385	-0.0
C	3.09	2.617	-0.0
O	2.781	0.392	0.0
H	3.579	3.581	-0.0
H	0.887	3.081	-0.0
C	1.703	2.37	-0.0
C	1.543	0.994	0.0
C	9.543	-0.247	-0.0
C	8.434	-1.067	-0.0
S	9.11	1.469	-0.0
C	7.231	-0.32	-0.0
C	7.41	1.064	-0.0
H	6.151	2.892	0.0
H	8.505	-2.148	-0.0
S	5.536	-0.728	-0.0
C	6.211	1.81	-0.0
C	5.098	0.987	-0.0
C	12.593	-2.101	-0.0
C	13.164	-0.84	-0.001
O	11.221	-1.979	-0.0
H	14.23	-0.65	-0.001
H	12.178	1.164	-0.001
C	12.101	0.086	-0.0
C	10.927	-0.645	-0.0
C	16.134	-5.319	-0.0
C	14.765	-5.054	-0.0
N	16.795	-4.094	-0.001
C	15.863	-3.001	-0.001
C	13.474	-5.705	-0.0
O	13.128	-6.884	-0.0
O	16.208	-1.822	-0.001
C	11.11	-4.861	-0.0
C	18.227	-3.845	-0.001
H	18.346	-2.76	-0.001
H	18.704	-4.266	0.889
H	18.704	-4.266	-0.891
H	10.634	-4.44	0.89
H	10.633	-4.44	-0.89
H	10.992	-5.946	0.0
N	12.542	-4.612	-0.0
C	14.572	-3.652	-0.001
C	13.204	-3.387	-0.0
C	18.41	-8.062	-0.0
C	17.234	-8.792	-0.0
O	18.116	-6.727	-0.001
H	17.156	-9.87	-0.0
H	15.106	-8.055	-0.0
C	16.172	-7.866	-0.0
C	16.744	-6.605	-0.0
C	24.24	-9.665	-0.001
C	23.712	-8.39	-0.001
S	22.984	-10.912	-0.001
C	22.296	-8.41	-0.001
C	21.736	-9.689	-0.001
H	19.715	-10.606	-0.001
H	24.33	-7.501	-0.001
S	21.053	-7.187	-0.001
C	20.324	-9.71	-0.001
C	19.794	-8.431	-0.001
C	27.793	-9.703	-0.001
C	27.633	-11.078	-0.0
O	26.556	-9.1	-0.001
H	28.448	-11.79	-0.0
H	25.754	-12.287	-0.0
C	26.244	-11.323	-0.0
C	25.615	-10.092	-0.001
C	32.486	-8.77	-0.001
C	31.177	-8.292	-0.001
N	32.422	-10.161	-0.001
C	31.06	-10.617	-0.001
C	30.406	-7.069	-0.001
O	30.718	-5.88	-0.001
O	30.748	-11.805	-0.0
C	27.945	-6.573	-0.001
C	33.52	-11.113	-0.0
H	33.063	-12.104	-0.0
H	34.146	-10.997	-0.89
H	34.146	-10.997	0.889
H	27.32	-6.689	-0.891
H	27.32	-6.688	0.889
H	28.403	-5.582	-0.001
N	29.044	-7.525	-0.001
C	30.289	-9.393	-0.001
C	28.98	-8.915	-0.001
C	35.851	-7.593	-0.001
C	35.22	-6.361	-0.001
O	34.91	-8.585	-0.001
H	35.709	-5.397	-0.001
H	33.016	-5.896	-0.001
C	33.832	-6.608	-0.001
C	33.672	-7.983	-0.001
C	41.673	-9.224	-0.001
C	40.563	-10.045	-0.001
S	41.239	-7.509	-0.001
C	39.361	-9.298	-0.001
C	39.539	-7.913	-0.001
H	38.28	-6.086	-0.001
H	40.635	-11.125	-0.001
S	37.665	-9.705	-0.001
C	38.34	-7.168	-0.001
C	37.227	-7.99	-0.001
C	44.722	-11.078	-0.001
C	45.293	-9.817	-0.001
O	43.351	-10.957	-0.001
H	46.359	-9.627	-0.002
H	44.307	-7.813	-0.001
C	44.23	-8.891	-0.001
C	43.056	-9.622	-0.001
C	48.263	-14.296	-0.001
C	46.895	-14.032	-0.001
N	48.924	-13.072	-0.001
C	47.993	-11.979	-0.001
C	45.603	-14.682	-0.001
O	45.258	-15.861	-0.001
O	48.338	-10.8	-0.002
C	43.239	-13.839	-0.001
C	50.357	-12.822	-0.002
H	50.475	-11.737	-0.002
H	50.833	-13.243	0.888
H	50.833	-13.244	-0.891
H	42.763	-13.417	0.889
H	42.763	-13.417	-0.891
H	43.121	-14.924	-0.001
N	44.671	-13.589	-0.001
C	46.701	-12.63	-0.001
C	45.333	-12.365	-0.001
C	50.539	-17.04	-0.001
C	49.363	-17.77	-0.001
O	50.245	-15.705	-0.001
H	49.285	-18.848	-0.001
H	47.235	-17.032	-0.001
C	48.301	-16.843	-0.001
C	48.874	-15.582	-0.001
C	56.369	-18.643	-0.001
C	55.841	-17.368	-0.001
S	55.113	-19.889	-0.001
C	54.426	-17.388	-0.001
C	53.865	-18.666	-0.001
H	51.844	-19.583	-0.001
H	56.459	-16.479	-0.001
S	53.183	-16.165	-0.001
C	52.453	-18.687	-0.001
C	51.923	-17.408	-0.001
C	59.922	-18.68	-0.001
C	59.762	-20.055	-0.001
O	58.685	-18.077	-0.002
H	60.578	-20.767	-0.001
H	57.884	-21.264	-0.001
C	58.373	-20.301	-0.001
C	57.744	-19.069	-0.001
C	64.616	-17.748	-0.001
C	63.307	-17.269	-0.001
N	64.551	-19.138	-0.001
C	63.189	-19.594	-0.001
C	62.535	-16.046	-0.002
O	62.847	-14.858	-0.002
O	62.877	-20.783	-0.001
C	60.075	-15.55	-0.002
C	65.65	-20.09	-0.001
H	65.192	-21.081	-0.001
H	66.275	-19.975	-0.891
H	66.275	-19.975	0.889
H	59.449	-15.666	-0.891
H	59.449	-15.666	0.888
H	60.533	-14.56	-0.002
N	61.173	-16.502	-0.002
C	62.418	-18.371	-0.001
C	61.109	-17.893	-0.001
C	67.98	-16.57	-0.002
C	67.349	-15.338	-0.002
O	67.04	-17.563	-0.002
H	67.838	-14.374	-0.002
H	65.145	-14.874	-0.002
C	65.961	-15.585	-0.002
C	65.802	-16.961	-0.002
C	73.802	-18.202	-0.002
C	72.693	-19.022	-0.002
S	73.369	-16.486	-0.002
C	71.49	-18.275	-0.002
C	71.669	-16.891	-0.002
H	70.409	-15.063	-0.002
H	72.764	-20.103	-0.002
S	69.794	-18.683	-0.002
C	70.47	-16.145	-0.002
C	69.356	-16.968	-0.002
C	76.851	-20.056	-0.002
C	77.423	-18.795	-0.002
O	75.48	-19.934	-0.002
H	78.489	-18.605	-0.002
H	76.436	-16.791	-0.002
C	76.359	-17.869	-0.002
C	75.185	-18.6	-0.002
C	80.392	-23.274	-0.002
C	79.024	-23.009	-0.002
N	81.054	-22.049	-0.002
C	80.122	-20.956	-0.002
C	77.733	-23.66	-0.002
O	77.387	-24.839	-0.002
O	80.467	-19.777	-0.002
C	75.369	-22.816	-0.002
C	82.486	-21.8	-0.002
H	82.604	-20.715	-0.003
H	82.962	-22.221	0.887
H	82.962	-22.221	-0.892
H	74.892	-22.395	0.888
H	74.892	-22.395	-0.891
H	75.25	-23.901	-0.002
N	76.801	-22.567	-0.002
C	78.83	-21.607	-0.002
C	77.462	-21.342	-0.002
C	82.668	-26.017	-0.002
C	81.493	-26.747	-0.002
O	82.374	-24.682	-0.002
H	81.415	-27.825	-0.002
H	79.365	-26.01	-0.002
C	80.431	-25.821	-0.002
C	81.003	-24.56	-0.002
C	88.498	-27.62	-0.002
C	87.97	-26.345	-0.002
S	87.243	-28.867	-0.002
C	86.555	-26.365	-0.002
C	85.994	-27.644	-0.002
H	83.973	-28.561	-0.002
H	88.588	-25.456	-0.002
S	85.312	-25.142	-0.002
C	84.583	-27.665	-0.002
C	84.052	-26.386	-0.002
C	92.052	-27.658	-0.002
C	91.892	-29.033	-0.002
O	90.814	-27.055	-0.002
H	92.707	-29.745	-0.002
H	90.013	-30.242	-0.002
C	90.503	-29.278	-0.002
C	89.874	-28.047	-0.002
C	96.745	-26.725	-0.002
C	95.436	-26.247	-0.002
N	96.68	-28.116	-0.002
C	95.319	-28.572	-0.002
C	94.665	-25.024	-0.002
O	94.976	-23.835	-0.003
O	95.007	-29.76	-0.002
C	92.204	-24.528	-0.002
C	97.779	-29.068	-0.002
H	97.321	-30.059	-0.002
H	98.405	-28.952	-0.892
H	98.404	-28.952	0.888
H	91.579	-24.644	-0.892
H	91.579	-24.643	0.887
H	92.662	-23.537	-0.003
N	93.303	-25.48	-0.002
C	94.547	-27.348	-0.002
C	93.238	-26.87	-0.002
C	100.109	-25.548	-0.002
C	99.478	-24.316	-0.003
O	99.169	-26.54	-0.002
H	99.967	-23.352	-0.003
H	97.274	-23.851	-0.003
C	98.09	-24.563	-0.002
C	97.931	-25.938	-0.002
C	105.931	-27.179	-0.003
C	104.822	-28.0	-0.003
S	105.498	-25.464	-0.002
C	103.619	-27.253	-0.002
C	103.798	-25.868	-0.002
H	102.539	-24.041	-0.002
H	104.893	-29.08	-0.003
S	101.924	-27.66	-0.002
C	102.599	-25.123	-0.002
C	101.485	-25.945	-0.002
C	108.981	-29.033	-0.003
C	109.552	-27.772	-0.003
O	107.609	-28.912	-0.003
H	110.618	-27.582	-0.003
H	108.565	-25.768	-0.003
C	108.488	-26.846	-0.003
C	107.315	-27.577	-0.003
C	112.522	-32.251	-0.003
C	111.153	-31.987	-0.003
N	113.183	-31.027	-0.003
C	112.251	-29.934	-0.003
C	109.862	-32.637	-0.003
O	109.516	-33.816	-0.002
O	112.596	-28.755	-0.003
C	107.498	-31.794	-0.002
C	114.615	-30.777	-0.003
H	114.734	-29.692	-0.003
H	115.092	-31.198	0.886
H	115.092	-31.199	-0.893
H	107.021	-31.372	0.887
H	107.021	-31.372	-0.892
H	107.38	-32.879	-0.002
N	108.93	-31.544	-0.003
C	110.96	-30.585	-0.003
C	109.591	-30.32	-0.003
C	114.798	-34.995	-0.003
C	113.622	-35.725	-0.003
O	114.504	-33.66	-0.003
H	113.544	-36.803	-0.003
H	111.494	-34.987	-0.003
C	112.56	-34.798	-0.003
C	113.132	-33.537	-0.003
C	120.628	-36.598	-0.003
C	120.1	-35.323	-0.003
S	119.372	-37.844	-0.003
C	118.684	-35.343	-0.003
C	118.124	-36.621	-0.003
H	116.103	-37.538	-0.003
H	120.718	-34.434	-0.003
S	117.441	-34.12	-0.003
C	116.712	-36.642	-0.003
C	116.182	-35.363	-0.003
C	124.181	-36.635	-0.003
C	124.021	-38.01	-0.003
O	122.944	-36.032	-0.003
H	124.836	-38.722	-0.003
H	122.142	-39.219	-0.003
C	122.632	-38.256	-0.003
C	122.003	-37.024	-0.003
C	128.874	-35.703	-0.003
C	127.565	-35.224	-0.003
N	128.81	-37.093	-0.003
C	127.448	-37.549	-0.003
C	126.794	-34.001	-0.003
O	127.106	-32.813	-0.003
O	127.136	-38.738	-0.003
C	124.333	-33.505	-0.003
C	129.908	-38.045	-0.003
H	129.451	-39.036	-0.003
H	130.534	-37.93	-0.893
H	130.534	-37.93	0.887
H	123.708	-33.621	-0.893
H	123.708	-33.621	0.887
H	124.791	-32.515	-0.003
N	125.432	-34.457	-0.003
C	126.676	-36.326	-0.003
C	125.368	-35.848	-0.003
C	132.239	-34.525	-0.003
C	131.608	-33.293	-0.003
O	131.298	-35.518	-0.003
H	132.096	-32.329	-0.003
H	129.404	-32.829	-0.003
C	130.22	-33.54	-0.003
C	130.06	-34.916	-0.003
C	138.061	-36.157	-0.003
C	136.951	-36.977	-0.003
S	137.627	-34.441	-0.003
C	135.749	-36.23	-0.003
C	135.927	-34.846	-0.003
H	134.668	-33.018	-0.003
H	137.022	-38.058	-0.003
S	134.053	-36.638	-0.003
C	134.728	-34.1	-0.003
C	133.615	-34.923	-0.003
C	141.11	-38.011	-0.004
C	141.681	-36.75	-0.004
O	139.739	-37.889	-0.003
H	142.747	-36.56	-0.004
H	140.695	-34.746	-0.004
C	140.618	-35.824	-0.004
C	139.444	-36.555	-0.003
C	144.651	-41.229	-0.004
C	143.283	-40.964	-0.004
N	145.312	-40.004	-0.004
C	144.38	-38.911	-0.004
C	141.991	-41.615	-0.003
O	141.646	-42.794	-0.003
O	144.726	-37.732	-0.004
C	139.627	-40.771	-0.003
C	146.745	-39.755	-0.004
H	146.863	-38.67	-0.004
H	147.221	-40.176	0.886
H	147.221	-40.176	-0.894
H	139.151	-40.35	0.887
H	139.151	-40.35	-0.893
H	139.509	-41.856	-0.003
N	141.059	-40.522	-0.003
C	143.089	-39.562	-0.004
C	141.721	-39.297	-0.004
C	146.927	-43.972	-0.004
C	145.751	-44.703	-0.003
O	146.633	-42.637	-0.004
H	145.673	-45.78	-0.003
H	143.623	-43.965	-0.003
C	144.689	-43.776	-0.004
C	145.262	-42.515	-0.004
C	152.757	-45.575	-0.004
C	152.229	-44.3	-0.004
S	151.501	-46.822	-0.004
C	150.814	-44.32	-0.004
C	150.253	-45.599	-0.004
H	148.232	-46.516	-0.004
H	152.847	-43.411	-0.004
S	149.571	-43.097	-0.004
C	148.841	-45.62	-0.004
C	148.311	-44.341	-0.004
H	-7.586	-0.96	0.0
H	153.818	-45.788	-0.004
