502
FU_DPP-b12_2_8x2_FU_TVT_10
C	-4.279	-1.248	-0.0
C	-4.2	-2.631	-0.0
O	-5.601	-0.867	-0.0
H	-3.274	-3.192	-0.0
H	-5.842	-4.144	-0.0
C	-5.525	-3.111	-0.0
C	-6.358	-2.006	-0.0
C	0.185	0.477	-0.0
C	-1.187	0.723	-0.0
N	0.36	-0.904	-0.0
C	-0.903	-1.587	-0.0
C	-2.157	1.795	-0.0
O	-2.054	3.02	-0.0
O	-1.006	-2.812	-0.0
C	-4.666	1.861	-0.0
C	1.606	-1.654	-0.0
H	1.325	-2.708	-0.0
H	2.202	-1.432	-0.89
H	2.202	-1.432	0.89
H	-5.263	1.64	-0.89
H	-5.262	1.64	0.89
H	-4.385	2.916	-0.0
N	-3.42	1.112	-0.0
C	-1.873	-0.515	-0.0
C	-3.245	-0.269	-0.0
C	3.298	2.213	-0.0
C	2.464	3.319	-0.0
O	2.541	1.074	-0.0
H	2.782	4.352	-0.0
H	0.214	3.399	-0.0
C	1.14	2.838	-0.0
C	1.218	1.455	-0.0
C	13.05	-1.021	0.0
S	12.29	0.552	0.0
C	12.094	-2.022	-0.0
C	9.531	0.715	0.0
C	10.68	-0.154	0.0
C	10.77	-1.537	-0.0
C	8.233	0.309	-0.0
C	7.088	1.182	-0.0
C	7.004	2.568	0.0
H	9.741	1.783	0.0
H	8.021	-0.758	-0.0
H	7.876	3.213	0.0
H	5.437	4.115	0.0
H	9.901	-2.186	-0.0
H	12.347	-3.077	-0.0
C	5.684	3.059	0.0
S	5.476	0.483	-0.0
C	4.72	2.061	-0.0
C	16.562	-0.402	0.0
C	16.64	-1.786	0.0
O	15.239	-0.021	0.0
H	17.566	-2.347	0.0
H	14.998	-3.299	0.0
C	15.315	-2.266	0.0
C	14.482	-1.16	0.0
C	21.026	1.322	0.0
C	19.653	1.568	0.0
N	21.2	-0.059	0.0
C	19.937	-0.742	0.0
C	18.683	2.64	0.0
O	18.786	3.865	0.0
O	19.834	-1.967	0.0
C	16.174	2.706	0.0
C	22.446	-0.809	0.0
H	22.165	-1.863	0.0
H	23.043	-0.587	-0.889
H	23.042	-0.587	0.89
H	15.578	2.485	-0.889
H	15.578	2.485	0.89
H	16.456	3.761	0.0
N	17.42	1.957	0.0
C	18.967	0.33	0.0
C	17.595	0.576	0.0
C	24.139	3.058	0.0
C	23.305	4.164	0.0
O	23.382	1.919	0.0
H	23.622	5.197	0.0
H	21.054	4.244	0.0
C	21.98	3.683	0.0
C	22.059	2.3	0.0
C	33.891	-0.176	0.001
S	33.13	1.397	0.001
C	32.934	-1.177	0.0
C	30.371	1.56	0.0
C	31.52	0.692	0.0
C	31.61	-0.692	0.0
C	29.074	1.154	0.0
C	27.928	2.027	0.0
C	27.844	3.413	0.0
H	30.582	2.628	0.001
H	28.861	0.087	0.0
H	28.716	4.058	0.0
H	26.277	4.96	0.0
H	30.741	-1.341	0.0
H	33.187	-2.232	0.0
C	26.525	3.904	0.0
S	26.317	1.328	0.0
C	25.561	2.906	0.0
C	37.402	0.443	0.001
C	37.48	-0.94	0.001
O	36.079	0.824	0.001
H	38.406	-1.502	0.001
H	35.838	-2.454	0.001
C	36.156	-1.421	0.001
C	35.322	-0.315	0.001
C	41.866	2.167	0.001
C	40.493	2.413	0.001
N	42.041	0.786	0.001
C	40.778	0.103	0.0
C	39.523	3.485	0.0
O	39.626	4.71	0.001
O	40.675	-1.122	0.001
C	37.015	3.552	0.001
C	43.286	0.037	0.001
H	43.005	-1.018	0.001
H	43.883	0.258	-0.889
H	43.883	0.258	0.89
H	36.418	3.33	-0.889
H	36.418	3.33	0.89
H	37.296	4.606	0.001
N	38.26	2.802	0.001
C	39.808	1.175	0.001
C	38.435	1.421	0.001
C	44.979	3.903	0.001
C	44.145	5.009	0.001
O	44.222	2.764	0.001
H	44.462	6.042	0.001
H	41.895	5.09	0.001
C	42.821	4.529	0.001
C	42.899	3.145	0.001
C	54.731	0.67	0.001
S	53.97	2.242	0.001
C	53.775	-0.332	0.001
C	51.212	2.406	0.001
C	52.361	1.537	0.001
C	52.45	0.153	0.001
C	49.914	1.999	0.001
C	48.769	2.873	0.001
C	48.685	4.259	0.001
H	51.422	3.473	0.001
H	49.702	0.932	0.001
H	49.557	4.903	0.001
H	47.118	5.805	0.001
H	51.582	-0.496	0.001
H	54.028	-1.386	0.001
C	47.365	4.749	0.001
S	47.157	2.174	0.001
C	46.401	3.751	0.001
C	58.242	1.288	0.001
C	58.321	-0.095	0.001
O	56.92	1.669	0.001
H	59.247	-0.656	0.001
H	56.679	-1.609	0.001
C	56.996	-0.576	0.001
C	56.163	0.53	0.001
C	62.706	3.012	0.001
C	61.334	3.258	0.001
N	62.881	1.631	0.001
C	61.618	0.948	0.001
C	60.364	4.331	0.001
O	60.467	5.555	0.001
O	61.515	-0.276	0.001
C	57.855	4.397	0.001
C	64.127	0.882	0.001
H	63.846	-0.173	0.001
H	64.723	1.103	-0.889
H	64.723	1.103	0.891
H	57.259	4.176	-0.889
H	57.259	4.176	0.891
H	58.136	5.451	0.001
N	59.101	3.647	0.001
C	60.648	2.021	0.001
C	59.276	2.266	0.001
C	65.819	4.748	0.001
C	64.986	5.854	0.001
O	65.062	3.609	0.001
H	65.303	6.887	0.001
H	62.735	5.935	0.001
C	63.661	5.374	0.001
C	63.739	3.99	0.001
C	75.571	1.515	0.001
S	74.811	3.087	0.001
C	74.615	0.514	0.001
C	72.052	3.251	0.001
C	73.201	2.382	0.001
C	73.291	0.998	0.001
C	70.755	2.844	0.001
C	69.609	3.718	0.001
C	69.525	5.104	0.001
H	72.263	4.319	0.001
H	70.542	1.777	0.001
H	70.397	5.748	0.001
H	67.958	6.65	0.001
H	72.422	0.349	0.001
H	74.868	-0.541	0.001
C	68.206	5.594	0.001
S	67.998	3.019	0.001
C	67.241	4.597	0.001
C	79.083	2.133	0.001
C	79.161	0.75	0.001
O	77.76	2.514	0.001
H	80.087	0.189	0.001
H	77.519	-0.764	0.001
C	77.836	0.27	0.001
C	77.003	1.375	0.001
C	83.547	3.857	0.001
C	82.174	4.103	0.001
N	83.721	2.476	0.001
C	82.459	1.793	0.001
C	81.204	5.176	0.001
O	81.307	6.4	0.001
O	82.355	0.569	0.001
C	78.696	5.242	0.001
C	84.967	1.727	0.001
H	84.686	0.672	0.001
H	85.564	1.948	-0.888
H	85.564	1.948	0.891
H	78.099	5.021	-0.888
H	78.099	5.021	0.891
H	78.977	6.297	0.001
N	79.941	4.493	0.001
C	81.488	2.866	0.001
C	80.116	3.112	0.001
C	86.66	5.594	0.001
C	85.826	6.699	0.001
O	85.903	4.455	0.001
H	86.143	7.732	0.001
H	83.575	6.78	0.001
C	84.501	6.219	0.001
C	84.58	4.836	0.001
C	96.412	2.36	0.002
S	95.651	3.932	0.002
C	95.456	1.359	0.002
C	92.892	4.096	0.002
C	94.041	3.227	0.002
C	94.131	1.843	0.001
C	91.595	3.69	0.002
C	90.449	4.563	0.002
C	90.365	5.949	0.002
H	93.103	5.164	0.002
H	91.382	2.622	0.001
H	91.237	6.593	0.002
H	88.798	7.495	0.002
H	93.262	1.194	0.001
H	95.709	0.304	0.001
C	89.046	6.439	0.002
S	88.838	3.864	0.001
C	88.082	5.442	0.002
C	99.923	2.978	0.002
C	100.002	1.595	0.002
O	98.6	3.359	0.002
H	100.927	1.034	0.002
H	98.359	0.082	0.002
C	98.677	1.115	0.002
C	97.843	2.22	0.002
C	104.387	4.703	0.002
C	103.015	4.949	0.002
N	104.562	3.321	0.002
C	103.299	2.638	0.002
C	102.045	6.021	0.002
O	102.148	7.246	0.002
O	103.196	1.414	0.002
C	99.536	6.087	0.002
C	105.808	2.572	0.002
H	105.526	1.518	0.002
H	106.404	2.793	-0.888
H	106.404	2.793	0.891
H	98.939	5.866	-0.888
H	98.939	5.866	0.891
H	99.817	7.142	0.002
N	100.782	5.338	0.002
C	102.329	3.711	0.002
C	100.956	3.957	0.002
C	107.5	6.439	0.002
C	106.666	7.544	0.002
O	106.743	5.3	0.002
H	106.983	8.578	0.002
H	104.416	7.625	0.002
C	105.342	7.064	0.002
C	105.42	5.681	0.002
C	117.252	3.205	0.002
S	116.492	4.778	0.002
C	116.296	2.204	0.002
C	113.733	4.941	0.002
C	114.882	4.072	0.002
C	114.972	2.689	0.002
C	112.435	4.535	0.002
C	111.29	5.408	0.002
C	111.206	6.794	0.002
H	113.943	6.009	0.002
H	112.223	3.467	0.002
H	112.078	7.439	0.002
H	109.639	8.341	0.002
H	114.103	2.039	0.002
H	116.549	1.149	0.002
C	109.886	7.285	0.002
S	109.678	4.709	0.002
C	108.922	6.287	0.002
C	120.764	3.823	0.002
C	120.842	2.44	0.002
O	119.441	4.204	0.002
H	121.768	1.879	0.002
H	119.2	0.927	0.002
C	119.517	1.96	0.002
C	118.684	3.065	0.002
C	125.227	5.548	0.002
C	123.855	5.794	0.002
N	125.402	4.167	0.002
C	124.139	3.484	0.002
C	122.885	6.866	0.002
O	122.988	8.091	0.002
O	124.036	2.259	0.002
C	120.376	6.932	0.002
C	126.648	3.417	0.002
H	126.367	2.363	0.002
H	127.244	3.639	-0.887
H	127.244	3.639	0.892
H	119.78	6.711	-0.887
H	119.78	6.711	0.892
H	120.658	7.987	0.002
N	121.622	6.183	0.002
C	123.169	4.556	0.002
C	121.797	4.802	0.002
C	128.34	7.284	0.002
C	127.507	8.39	0.002
O	127.583	6.145	0.002
H	127.824	9.423	0.002
H	125.256	8.47	0.002
C	126.182	7.909	0.002
C	126.261	6.526	0.002
C	138.093	4.05	0.002
S	137.332	5.623	0.003
C	137.136	3.049	0.002
C	134.573	5.786	0.002
C	135.722	4.917	0.002
C	135.812	3.534	0.002
C	133.276	5.38	0.002
C	132.13	6.253	0.002
C	132.046	7.639	0.002
H	134.784	6.854	0.002
H	133.063	4.313	0.002
H	132.918	8.284	0.002
H	130.479	9.186	0.002
H	134.943	2.885	0.002
H	137.389	1.994	0.002
C	130.727	8.13	0.002
S	130.519	5.554	0.002
C	129.763	7.132	0.002
C	141.604	4.669	0.003
C	141.682	3.286	0.003
O	140.281	5.05	0.003
H	142.608	2.724	0.002
H	140.04	1.772	0.003
C	140.357	2.805	0.003
C	139.524	3.911	0.003
C	146.068	6.393	0.003
C	144.695	6.639	0.002
N	146.243	5.012	0.002
C	144.98	4.329	0.002
C	143.725	7.711	0.002
O	143.828	8.936	0.003
O	144.876	3.104	0.002
C	141.217	7.777	0.003
C	147.488	4.263	0.003
H	147.207	3.208	0.003
H	148.085	4.484	-0.887
H	148.085	4.484	0.892
H	140.62	7.556	-0.887
H	140.62	7.556	0.892
H	141.498	8.832	0.003
N	142.462	7.028	0.003
C	144.009	5.401	0.002
C	142.637	5.647	0.002
C	149.181	8.129	0.003
C	148.347	9.235	0.003
O	148.424	6.99	0.003
H	148.664	10.268	0.003
H	146.097	9.315	0.003
C	147.023	8.754	0.003
C	147.101	7.371	0.003
C	158.933	4.895	0.003
S	158.172	6.468	0.003
C	157.977	3.894	0.003
C	155.413	6.631	0.003
C	156.563	5.763	0.003
C	156.652	4.379	0.003
C	154.116	6.225	0.003
C	152.971	7.098	0.003
C	152.886	8.484	0.003
H	155.624	7.699	0.003
H	153.903	5.158	0.003
H	153.758	9.129	0.003
H	151.319	10.031	0.003
H	155.783	3.73	0.002
H	158.23	2.84	0.003
C	151.567	8.975	0.003
S	151.359	6.399	0.003
C	150.603	7.977	0.003
C	162.444	5.514	0.003
C	162.523	4.131	0.003
O	161.121	5.895	0.003
H	163.449	3.57	0.003
H	160.881	2.617	0.003
C	161.198	3.65	0.003
C	160.365	4.756	0.003
C	166.908	7.238	0.003
C	165.536	7.484	0.003
N	167.083	5.857	0.003
C	165.82	5.174	0.003
C	164.566	8.556	0.003
O	164.669	9.781	0.003
O	165.717	3.949	0.003
C	162.057	8.623	0.003
C	168.329	5.108	0.003
H	168.048	4.053	0.003
H	168.925	5.329	-0.887
H	168.925	5.329	0.893
H	161.46	8.401	-0.887
H	161.461	8.401	0.893
H	162.338	9.677	0.003
N	163.303	7.873	0.003
C	164.85	6.246	0.003
C	163.477	6.492	0.003
C	170.021	8.974	0.003
C	169.187	10.08	0.003
O	169.264	7.835	0.003
H	169.505	11.113	0.003
H	166.937	10.161	0.003
C	167.863	9.6	0.003
C	167.941	8.216	0.003
C	179.773	5.741	0.003
S	179.013	7.313	0.003
C	178.817	4.739	0.003
C	176.254	7.477	0.003
C	177.403	6.608	0.003
C	177.493	5.224	0.003
C	174.956	7.07	0.003
C	173.811	7.944	0.003
C	173.727	9.33	0.003
H	176.464	8.544	0.003
H	174.744	6.003	0.003
H	174.599	9.974	0.003
H	172.16	10.876	0.003
H	176.624	4.575	0.003
H	179.07	3.685	0.003
C	172.407	9.82	0.003
S	172.199	7.245	0.003
C	171.443	8.822	0.003
C	183.285	6.359	0.003
C	183.363	4.976	0.003
O	181.962	6.74	0.003
H	184.289	4.415	0.003
H	181.721	3.462	0.003
C	182.038	4.495	0.003
C	181.205	5.601	0.003
C	187.749	8.083	0.003
C	186.376	8.329	0.003
N	187.923	6.702	0.003
C	186.66	6.019	0.003
C	185.406	9.402	0.003
O	185.509	10.626	0.003
O	186.557	4.795	0.003
C	182.897	9.468	0.003
C	189.169	5.953	0.003
H	188.888	4.898	0.003
H	189.766	6.174	-0.886
H	189.765	6.174	0.893
H	182.301	9.247	-0.886
H	182.301	9.247	0.893
H	183.179	10.522	0.003
N	184.143	8.718	0.003
C	185.69	7.092	0.003
C	184.318	7.337	0.003
C	190.861	9.819	0.003
C	190.028	10.925	0.003
O	190.105	8.68	0.003
H	190.345	11.958	0.003
H	187.777	11.006	0.003
C	188.703	10.445	0.003
C	188.782	9.061	0.003
C	200.614	6.586	0.004
S	199.853	8.158	0.004
C	199.657	5.585	0.003
C	197.094	8.322	0.004
C	198.243	7.453	0.004
C	198.333	6.069	0.003
C	195.797	7.915	0.003
C	194.651	8.789	0.003
C	194.567	10.175	0.004
H	197.305	9.39	0.004
H	195.584	6.848	0.003
H	195.439	10.819	0.004
H	193.0	11.721	0.004
H	197.464	5.42	0.003
H	199.91	4.53	0.003
C	193.248	10.665	0.004
S	193.04	8.09	0.003
C	192.284	9.668	0.003
H	-7.441	-2.006	-0.0
H	201.696	6.586	0.004
