552
IDTBPDF_10
C	0.072	1.215	0.119
C	-0.746	2.304	0.377
S	-0.901	-0.258	-0.098
C	-5.88	-0.782	0.039
C	-6.537	0.447	0.318
C	-5.817	1.634	0.514
C	-4.433	1.58	0.43
C	-3.776	0.351	0.151
C	-4.496	-0.836	-0.046
C	-6.892	-1.925	-0.135
C	-8.199	-1.178	0.084
C	-7.956	0.157	0.339
C	-3.422	2.723	0.6
C	-2.115	1.974	0.385
C	-2.356	0.638	0.131
C	-6.683	-3.029	0.925
C	-6.819	-2.531	-1.555
C	-3.499	3.338	2.016
C	-3.626	3.82	-0.468
H	-9.973	-2.492	-0.121
H	-0.351	3.297	0.533
H	-6.333	2.567	0.726
H	-3.98	-1.769	-0.259
H	-6.729	-2.617	1.938
H	-7.456	-3.8	0.832
H	-5.708	-3.512	0.795
H	-6.957	-1.76	-2.32
H	-5.848	-3.01	-1.721
H	-7.599	-3.289	-1.688
H	-3.358	2.574	2.787
H	-2.724	4.102	2.144
H	-4.472	3.815	2.179
H	-3.585	3.399	-1.478
H	-4.597	4.311	-0.339
H	-2.845	4.585	-0.387
S	-9.413	1.049	0.582
C	-9.57	-1.509	0.079
C	-10.39	-0.422	0.339
C	4.47	1.022	-0.048
C	3.762	2.162	-0.486
C	3.65	-0.04	0.4
C	4.267	3.41	-1.136
N	3.134	4.147	-1.492
C	1.95	3.525	-1.108
C	3.177	5.437	-2.156
O	0.85	4.007	-1.311
O	5.405	3.786	-1.354
F	1.61	-1.03	0.873
H	4.087	-0.955	0.785
H	2.69	6.199	-1.54
H	2.661	5.386	-3.12
H	4.226	5.691	-2.308
C	2.277	0.05	0.414
C	2.351	2.231	-0.457
C	1.531	1.185	0.011
C	16.139	-1.93	-0.223
C	15.196	-2.922	-0.446
S	15.343	-0.36	0.029
C	10.45	0.709	0.09
C	9.652	-0.439	-0.159
C	10.228	-1.698	-0.382
C	11.612	-1.797	-0.353
C	12.411	-0.648	-0.104
C	11.834	0.611	0.119
C	9.578	1.956	0.302
C	8.189	1.358	0.137
C	8.274	0.005	-0.125
C	12.484	-3.044	-0.561
C	13.872	-2.444	-0.4
C	13.79	-1.09	-0.14
C	9.865	3.033	-0.768
C	9.774	2.547	1.716
C	12.283	-3.643	-1.971
C	12.203	-4.114	0.517
H	6.58	2.858	0.41
H	15.473	-3.952	-0.615
H	9.604	-2.569	-0.571
H	12.458	1.481	0.309
H	9.734	2.631	-1.778
H	9.186	3.884	-0.646
H	10.892	3.405	-0.678
H	9.582	1.795	2.488
H	10.798	2.916	1.843
H	9.088	3.386	1.879
H	12.476	-2.898	-2.749
H	12.963	-4.488	-2.128
H	11.257	-4.01	-2.094
H	12.331	-3.703	1.523
H	11.179	-4.495	0.428
H	12.891	-4.96	0.406
S	6.718	-0.721	-0.307
C	6.864	1.838	0.196
C	5.92	0.848	-0.029
C	20.535	-2.223	-0.232
C	19.723	-3.279	0.236
C	19.819	-1.076	-0.65
C	20.113	-4.577	0.868
N	18.921	-5.186	1.27
C	17.798	-4.436	0.933
C	18.848	-6.473	1.935
O	16.661	-4.795	1.181
O	21.211	-5.077	1.041
F	17.883	0.133	-1.043
H	20.338	-0.215	-1.054
H	18.257	-7.176	1.341
H	18.381	-6.368	2.918
H	19.868	-6.842	2.046
C	18.445	-1.014	-0.609
C	18.313	-3.192	0.264
C	17.595	-2.061	-0.173
C	32.449	-0.661	-0.591
C	31.631	0.428	-0.333
S	31.475	-2.134	-0.808
C	26.496	-2.658	-0.671
C	25.84	-1.429	-0.392
C	26.56	-0.241	-0.196
C	27.943	-0.295	-0.28
C	28.6	-1.525	-0.558
C	27.88	-2.712	-0.755
C	25.485	-3.8	-0.845
C	24.178	-3.053	-0.626
C	24.421	-1.718	-0.371
C	28.955	0.847	-0.109
C	30.261	0.099	-0.325
C	30.02	-1.237	-0.579
C	25.693	-4.904	0.216
C	25.557	-4.406	-2.265
C	28.877	1.462	1.306
C	28.751	1.945	-1.178
H	22.404	-4.367	-0.831
H	32.026	1.421	-0.177
H	26.043	0.692	0.017
H	28.397	-3.645	-0.968
H	25.648	-4.493	1.229
H	24.921	-5.676	0.122
H	26.669	-5.387	0.085
H	25.419	-3.636	-3.03
H	26.529	-4.886	-2.431
H	24.777	-5.164	-2.398
H	29.018	0.698	2.077
H	29.652	2.227	1.434
H	27.904	1.939	1.469
H	28.792	1.524	-2.187
H	27.779	2.436	-1.049
H	29.532	2.709	-1.096
S	22.963	-0.826	-0.128
C	22.807	-3.384	-0.631
C	21.987	-2.297	-0.371
C	36.847	-0.853	-0.758
C	36.138	0.287	-1.196
C	36.027	-1.915	-0.31
C	36.643	1.535	-1.846
N	35.511	2.272	-2.202
C	34.326	1.65	-1.818
C	35.553	3.561	-2.866
O	33.227	2.132	-2.021
O	37.782	1.911	-2.063
F	33.986	-2.905	0.163
H	36.463	-2.83	0.075
H	35.067	4.323	-2.25
H	35.038	3.51	-3.829
H	36.603	3.816	-3.018
C	34.653	-1.826	-0.296
C	34.728	0.355	-1.167
C	33.907	-0.691	-0.699
C	48.516	-3.806	-0.933
C	47.573	-4.797	-1.155
S	47.719	-2.235	-0.681
C	42.827	-1.166	-0.619
C	42.029	-2.315	-0.869
C	42.605	-3.574	-1.091
C	43.988	-3.672	-1.062
C	44.787	-2.523	-0.814
C	44.211	-1.265	-0.591
C	41.955	0.081	-0.408
C	40.566	-0.517	-0.573
C	40.65	-1.87	-0.835
C	44.86	-4.919	-1.271
C	46.249	-4.319	-1.11
C	46.167	-2.965	-0.849
C	42.241	1.157	-1.478
C	42.15	0.672	1.007
C	44.659	-5.518	-2.681
C	44.58	-5.99	-0.193
H	38.957	0.983	-0.3
H	47.85	-5.828	-1.325
H	41.981	-4.444	-1.281
H	44.835	-0.395	-0.4
H	42.11	0.756	-2.488
H	41.562	2.009	-1.356
H	43.268	1.53	-1.388
H	41.959	-0.08	1.778
H	43.174	1.041	1.133
H	41.465	1.511	1.169
H	44.852	-4.773	-3.458
H	45.339	-6.363	-2.838
H	43.634	-5.885	-2.804
H	44.707	-5.578	0.813
H	43.556	-6.371	-0.282
H	45.268	-6.835	-0.304
S	39.095	-2.596	-1.017
C	39.241	-0.038	-0.514
C	38.297	-1.027	-0.739
C	52.911	-4.099	-0.942
C	52.1	-5.154	-0.474
C	52.195	-2.952	-1.36
C	52.49	-6.452	0.158
N	51.298	-7.061	0.561
C	50.175	-6.312	0.223
C	51.225	-8.349	1.226
O	49.038	-6.67	0.471
O	53.588	-6.952	0.331
F	50.259	-1.743	-1.753
H	52.715	-2.09	-1.763
H	50.633	-9.051	0.631
H	50.757	-8.243	2.209
H	52.245	-8.718	1.336
C	50.821	-2.89	-1.319
C	50.69	-5.068	-0.446
C	49.971	-3.936	-0.883
C	64.826	-2.536	-1.301
C	64.007	-1.447	-1.043
S	63.852	-4.009	-1.517
C	58.873	-4.533	-1.381
C	58.216	-3.304	-1.102
C	58.936	-2.116	-0.906
C	60.32	-2.171	-0.99
C	60.977	-3.4	-1.268
C	60.257	-4.587	-1.465
C	57.861	-5.675	-1.555
C	56.554	-4.928	-1.335
C	56.797	-3.594	-1.08
C	61.331	-1.028	-0.819
C	62.638	-1.777	-1.035
C	62.397	-3.113	-1.288
C	58.07	-6.78	-0.494
C	57.934	-6.281	-2.974
C	61.254	-0.413	0.596
C	61.127	0.07	-1.888
H	54.78	-6.242	-1.541
H	64.402	-0.454	-0.887
H	58.42	-1.183	-0.693
H	60.773	-5.52	-1.678
H	58.024	-6.368	0.519
H	57.297	-7.551	-0.588
H	59.045	-7.262	-0.625
H	57.796	-5.511	-3.739
H	58.905	-6.761	-3.141
H	57.154	-7.04	-3.107
H	61.395	-1.177	1.367
H	62.029	0.352	0.724
H	60.281	0.064	0.759
H	61.169	-0.351	-2.897
H	60.156	0.561	-1.759
H	61.908	0.834	-1.806
S	55.34	-2.702	-0.837
C	55.183	-5.26	-1.341
C	54.363	-4.172	-1.08
C	69.224	-2.728	-1.468
C	68.515	-1.589	-1.906
C	68.403	-3.791	-1.019
C	69.02	-0.34	-2.556
N	67.887	0.397	-2.911
C	66.703	-0.225	-2.528
C	67.93	1.686	-3.576
O	65.603	0.257	-2.731
O	70.158	0.036	-2.773
F	66.363	-4.78	-0.546
H	68.84	-4.705	-0.635
H	67.443	2.448	-2.959
H	67.414	1.635	-4.539
H	68.979	1.941	-3.727
C	67.03	-3.701	-1.005
C	67.104	-1.52	-1.877
C	66.284	-2.566	-1.409
C	80.892	-5.681	-1.643
C	79.949	-6.673	-1.865
S	80.096	-4.11	-1.391
C	75.203	-3.041	-1.329
C	74.405	-4.19	-1.579
C	74.981	-5.449	-1.801
C	76.365	-5.548	-1.772
C	77.164	-4.399	-1.523
C	76.587	-3.14	-1.3
C	74.331	-1.795	-1.118
C	72.942	-2.393	-1.283
C	73.027	-3.746	-1.544
C	77.237	-6.794	-1.981
C	78.625	-6.194	-1.82
C	78.543	-4.84	-1.559
C	74.618	-0.718	-2.188
C	74.527	-1.203	0.297
C	77.036	-7.394	-3.39
C	76.956	-7.865	-0.902
H	71.333	-0.892	-1.01
H	80.226	-7.703	-2.035
H	74.357	-6.319	-1.991
H	77.211	-2.27	-1.11
H	74.487	-1.12	-3.198
H	73.939	0.134	-2.065
H	75.645	-0.346	-2.097
H	74.335	-1.956	1.068
H	75.551	-0.834	0.423
H	73.841	-0.364	0.459
H	77.229	-6.648	-4.168
H	77.716	-8.239	-3.548
H	76.01	-7.76	-3.513
H	77.084	-7.453	0.103
H	75.932	-8.246	-0.992
H	77.644	-8.71	-1.014
S	71.471	-4.471	-1.727
C	71.617	-1.913	-1.224
C	70.673	-2.903	-1.448
C	85.288	-5.974	-1.652
C	84.476	-7.03	-1.184
C	84.572	-4.827	-2.069
C	84.866	-8.328	-0.551
N	83.674	-8.936	-0.149
C	82.551	-8.187	-0.487
C	83.601	-10.224	0.516
O	81.414	-8.546	-0.239
O	85.964	-8.827	-0.379
F	82.636	-3.618	-2.463
H	85.091	-3.965	-2.473
H	83.01	-10.926	-0.079
H	83.134	-10.119	1.499
H	84.621	-10.593	0.626
C	83.198	-4.765	-2.028
C	83.067	-6.943	-1.156
C	82.348	-5.812	-1.593
C	97.202	-4.411	-2.011
C	96.384	-3.322	-1.753
S	96.228	-5.884	-2.227
C	91.249	-6.408	-2.091
C	90.593	-5.179	-1.812
C	91.313	-3.992	-1.615
C	92.696	-4.046	-1.7
C	93.353	-5.275	-1.978
C	92.633	-6.462	-2.175
C	90.238	-7.551	-2.264
C	88.931	-6.804	-2.045
C	89.174	-5.469	-1.79
C	93.708	-2.903	-1.529
C	95.014	-3.652	-1.744
C	94.773	-4.988	-1.998
C	90.446	-8.655	-1.204
C	90.31	-8.157	-3.684
C	93.63	-2.288	-0.114
C	93.504	-1.806	-2.598
H	87.157	-8.117	-2.251
H	96.779	-2.329	-1.597
H	90.796	-3.058	-1.403
H	93.15	-7.395	-2.388
H	90.401	-8.243	-0.191
H	89.674	-9.426	-1.297
H	91.422	-9.138	-1.335
H	90.172	-7.386	-4.449
H	91.282	-8.636	-3.851
H	89.53	-8.915	-3.817
H	93.771	-3.052	0.657
H	94.405	-1.524	0.014
H	92.657	-1.811	0.049
H	93.545	-2.227	-3.607
H	92.532	-1.315	-2.468
H	94.285	-1.041	-2.516
S	87.716	-4.577	-1.547
C	87.56	-7.135	-2.05
C	86.74	-6.048	-1.79
C	101.6	-4.604	-2.178
C	100.891	-3.464	-2.615
C	100.78	-5.666	-1.729
C	101.396	-2.215	-3.266
N	100.264	-1.479	-3.621
C	99.079	-2.101	-3.237
C	100.306	-0.189	-4.286
O	97.98	-1.618	-3.44
O	102.535	-1.839	-3.483
F	98.739	-6.656	-1.256
H	101.216	-6.581	-1.345
H	99.82	0.573	-3.669
H	99.791	-0.24	-5.249
H	101.356	0.066	-4.437
C	99.406	-5.576	-1.715
C	99.481	-3.395	-2.587
C	98.66	-4.441	-2.119
C	113.269	-7.556	-2.352
C	112.326	-8.548	-2.575
S	112.472	-5.985	-2.1
C	107.58	-4.917	-2.039
C	106.782	-6.065	-2.289
C	107.358	-7.324	-2.511
C	108.741	-7.423	-2.482
C	109.54	-6.274	-2.233
C	108.964	-5.015	-2.01
C	106.708	-3.67	-1.827
C	105.319	-4.268	-1.993
C	105.403	-5.621	-2.254
C	109.613	-8.67	-2.691
C	111.002	-8.07	-2.529
C	110.92	-6.716	-2.269
C	106.994	-2.593	-2.898
C	106.903	-3.079	-0.413
C	109.412	-9.269	-4.1
C	109.333	-9.74	-1.612
H	103.71	-2.768	-1.719
H	112.603	-9.578	-2.745
H	106.734	-8.195	-2.7
H	109.588	-4.145	-1.82
H	106.863	-2.995	-3.907
H	106.315	-1.742	-2.775
H	108.021	-2.221	-2.807
H	106.712	-3.831	0.359
H	107.927	-2.709	-0.286
H	106.218	-2.24	-0.251
H	109.605	-8.523	-4.878
H	110.092	-10.114	-4.258
H	108.387	-9.636	-4.223
H	109.46	-9.329	-0.606
H	108.309	-10.121	-1.702
H	110.021	-10.586	-1.723
S	103.848	-6.347	-2.437
C	103.994	-3.788	-1.933
C	103.05	-4.778	-2.158
C	117.664	-7.849	-2.362
C	116.853	-8.905	-1.894
C	116.948	-6.702	-2.779
C	117.243	-10.203	-1.261
N	116.051	-10.812	-0.859
C	114.928	-10.062	-1.196
C	115.978	-12.099	-0.194
O	113.791	-10.421	-0.949
O	118.341	-10.703	-1.089
F	115.012	-5.493	-3.173
H	117.468	-5.84	-3.183
H	115.386	-12.802	-0.789
H	115.51	-11.994	0.789
H	116.998	-12.468	-0.084
C	115.574	-6.64	-2.738
C	115.443	-8.818	-1.866
C	114.724	-7.687	-2.303
C	129.579	-6.286	-2.72
C	128.76	-5.197	-2.463
S	128.605	-7.76	-2.937
C	123.626	-8.283	-2.8
C	122.969	-7.054	-2.522
C	123.689	-5.867	-2.325
C	125.073	-5.921	-2.41
C	125.73	-7.15	-2.688
C	125.01	-8.338	-2.885
C	122.614	-9.426	-2.974
C	121.307	-8.679	-2.755
C	121.55	-7.344	-2.5
C	126.084	-4.778	-2.239
C	127.391	-5.527	-2.454
C	127.15	-6.863	-2.708
C	122.823	-10.53	-1.914
C	122.687	-10.032	-4.394
C	126.007	-4.164	-0.824
C	125.88	-3.681	-3.308
H	119.533	-9.993	-2.96
H	129.155	-4.204	-2.306
H	123.173	-4.934	-2.113
H	125.526	-9.27	-3.098
H	122.777	-10.119	-0.901
H	122.05	-11.302	-2.007
H	123.798	-11.013	-2.044
H	122.549	-9.262	-5.159
H	123.658	-10.512	-4.561
H	121.907	-10.79	-4.527
H	126.148	-4.928	-0.053
H	126.782	-3.399	-0.695
H	125.034	-3.687	-0.661
H	125.922	-4.102	-4.317
H	124.909	-3.19	-3.178
H	126.661	-2.917	-3.226
S	120.093	-6.452	-2.257
C	119.936	-9.01	-2.76
C	119.116	-7.923	-2.5
C	133.977	-6.479	-2.887
C	133.268	-5.339	-3.325
C	133.156	-7.541	-2.439
C	133.773	-4.091	-3.975
N	132.64	-3.354	-4.331
C	131.456	-3.976	-3.947
C	132.683	-2.064	-4.995
O	130.356	-3.494	-4.15
O	134.911	-3.715	-4.193
F	131.116	-8.531	-1.966
H	133.593	-8.456	-2.055
H	132.196	-1.303	-4.379
H	132.167	-2.116	-5.959
H	133.732	-1.81	-5.147
C	131.783	-7.452	-2.425
C	131.857	-5.271	-3.297
C	131.037	-6.317	-2.828
C	145.645	-9.432	-3.062
C	144.702	-10.423	-3.285
S	144.849	-7.861	-2.81
C	139.956	-6.792	-2.749
C	139.158	-7.941	-2.998
C	139.734	-9.2	-3.221
C	141.118	-9.298	-3.192
C	141.917	-8.149	-2.943
C	141.34	-6.891	-2.72
C	139.084	-5.545	-2.537
C	137.695	-6.143	-2.702
C	137.78	-7.496	-2.964
C	141.99	-10.545	-3.4
C	143.378	-9.945	-3.239
C	143.296	-8.591	-2.979
C	139.371	-4.468	-3.607
C	139.28	-4.954	-1.123
C	141.789	-11.144	-4.81
C	141.709	-11.616	-2.322
H	136.086	-4.643	-2.429
H	144.979	-11.454	-3.454
H	139.11	-10.07	-3.41
H	141.964	-6.021	-2.53
H	139.24	-4.87	-4.617
H	138.692	-3.617	-3.485
H	140.398	-4.096	-3.517
H	139.088	-5.706	-0.351
H	140.304	-4.585	-0.996
H	138.594	-4.115	-0.96
H	141.982	-10.399	-5.588
H	142.469	-11.989	-4.967
H	140.763	-11.511	-4.933
H	141.837	-11.204	-1.316
H	140.685	-11.996	-2.411
H	142.397	-12.461	-2.433
S	136.224	-8.222	-3.146
C	136.37	-5.663	-2.643
C	135.426	-6.653	-2.868
C	150.041	-9.725	-3.072
C	149.229	-10.78	-2.603
C	149.325	-8.578	-3.489
C	149.619	-12.078	-1.971
N	148.427	-12.687	-1.569
C	147.304	-11.937	-1.906
C	148.354	-13.975	-0.904
O	146.167	-12.296	-1.658
O	150.717	-12.578	-1.798
F	147.389	-7.368	-3.882
H	149.844	-7.716	-3.893
H	147.763	-14.677	-1.499
H	147.887	-13.869	0.079
H	149.374	-14.344	-0.794
C	147.951	-8.516	-3.448
C	147.82	-10.693	-2.575
C	147.101	-9.562	-3.013
H	-11.47	-0.461	0.388
H	151.121	-9.787	-3.108
