492
IDTBT_10
C	0.516	1.256	-0.0
C	1.348	2.368	0.0
S	1.479	-0.242	-0.0
C	6.463	-0.778	0.0
C	7.133	0.475	0.0
C	6.423	1.685	0.0
C	5.037	1.629	0.0
C	4.366	0.375	0.0
C	5.077	-0.835	0.0
C	7.465	-1.942	0.0
C	8.782	-1.179	0.0
C	8.551	0.181	0.0
C	4.035	2.792	0.0
C	2.718	2.029	0.0
C	2.95	0.669	0.0
C	7.315	-2.814	-1.267
C	7.315	-2.814	1.266
C	4.184	3.664	-1.266
C	4.184	3.664	1.267
H	10.552	-2.521	0.0
H	0.949	3.373	0.0
H	6.949	2.637	0.0
H	4.551	-1.786	-0.0
H	7.414	-2.211	-2.175
H	8.084	-3.595	-1.287
H	6.335	-3.305	-1.286
H	7.414	-2.211	2.175
H	6.335	-3.305	1.285
H	8.084	-3.595	1.287
H	4.085	3.061	-2.174
H	3.415	4.445	-1.287
H	5.164	4.156	-1.285
H	4.085	3.061	2.175
H	5.164	4.156	1.286
H	3.415	4.445	1.288
S	10.021	1.092	0.0
C	10.152	-1.516	0.0
C	10.983	-0.405	0.0
C	-3.897	0.971	-0.0
C	-3.234	2.255	-0.0
C	-3.035	-0.12	-0.0
N	-3.844	3.443	-0.0
N	-1.345	3.625	-0.0
S	-2.671	4.593	-0.0
H	-1.071	-0.949	-0.0
H	-3.453	-1.123	-0.0
C	-1.63	-0.018	-0.0
C	-1.776	2.361	-0.0
C	-0.935	1.186	-0.0
C	-15.459	-2.328	-0.001
C	-14.474	-3.307	-0.001
S	-14.723	-0.706	-0.0
C	-9.869	0.545	-0.0
C	-9.024	-0.598	-0.0
C	-9.551	-1.898	-0.0
C	-10.931	-2.042	-0.0
C	-11.776	-0.899	-0.0
C	-11.249	0.401	-0.0
C	-9.045	1.842	-0.0
C	-7.632	1.278	-0.0
C	-7.664	-0.102	-0.0
C	-11.755	-3.339	-0.001
C	-13.168	-2.775	-0.001
C	-13.136	-1.395	-0.0
C	-9.32	2.683	1.266
C	-9.32	2.683	-1.267
C	-11.48	-4.18	1.266
C	-11.48	-4.18	-1.267
H	-6.075	2.862	-0.0
H	-14.723	-4.36	-0.001
H	-8.893	-2.763	-0.0
H	-11.907	1.266	-0.0
H	-9.135	2.101	2.174
H	-8.672	3.567	1.287
H	-10.361	3.027	1.285
H	-9.134	2.101	-2.175
H	-10.361	3.027	-1.286
H	-8.672	3.567	-1.287
H	-11.666	-3.598	2.174
H	-12.129	-5.064	1.287
H	-10.44	-4.524	1.285
H	-11.665	-3.598	-2.175
H	-10.44	-4.524	-1.286
H	-12.129	-5.064	-1.288
S	-6.077	-0.791	-0.0
C	-6.325	1.81	-0.0
C	-5.342	0.83	-0.0
C	-19.867	-2.684	-0.001
C	-19.025	-3.859	-0.001
C	-19.172	-1.48	-0.001
N	-19.456	-5.123	-0.001
N	-16.957	-4.941	-0.001
S	-18.129	-6.091	-0.001
H	-17.348	-0.375	-0.001
H	-19.73	-0.549	-0.001
C	-17.766	-1.378	-0.001
C	-17.566	-3.753	-0.001
C	-16.904	-2.469	-0.001
C	-31.784	-1.093	-0.001
C	-30.951	0.019	-0.001
S	-30.821	-2.591	-0.001
C	-25.837	-3.127	-0.001
C	-25.166	-1.873	-0.001
C	-25.876	-0.663	-0.001
C	-27.262	-0.72	-0.001
C	-27.934	-1.973	-0.001
C	-27.223	-3.183	-0.001
C	-24.835	-4.29	-0.001
C	-23.518	-3.528	-0.001
C	-23.749	-2.167	-0.001
C	-28.265	0.443	-0.001
C	-29.582	-0.319	-0.001
C	-29.35	-1.68	-0.001
C	-24.985	-5.163	-1.267
C	-24.985	-5.163	1.266
C	-28.115	1.316	-1.267
C	-28.115	1.316	1.266
H	-21.748	-4.87	-0.001
H	-31.35	1.024	-0.001
H	-25.35	0.288	-0.001
H	-27.749	-4.135	-0.001
H	-24.885	-4.56	-2.175
H	-24.216	-5.943	-1.288
H	-25.965	-5.653	-1.286
H	-24.885	-4.56	2.174
H	-25.965	-5.653	1.285
H	-24.216	-5.944	1.286
H	-28.214	0.713	-2.175
H	-28.885	2.096	-1.288
H	-27.136	1.807	-1.286
H	-28.214	0.713	2.174
H	-27.136	1.807	1.285
H	-28.885	2.096	1.287
S	-22.279	-1.256	-0.001
C	-22.147	-3.865	-0.001
C	-21.316	-2.753	-0.001
C	-36.197	-1.378	-0.001
C	-35.534	-0.094	-0.001
C	-35.335	-2.469	-0.001
N	-36.143	1.095	-0.001
N	-33.644	1.277	-0.001
S	-34.971	2.244	-0.001
H	-33.371	-3.298	-0.001
H	-35.753	-3.471	-0.001
C	-33.929	-2.366	-0.001
C	-34.075	0.012	-0.001
C	-33.234	-1.163	-0.001
C	-47.759	-4.676	-0.001
C	-46.774	-5.656	-0.001
S	-47.023	-3.055	-0.001
C	-42.169	-1.803	-0.001
C	-41.323	-2.946	-0.001
C	-41.851	-4.246	-0.001
C	-43.23	-4.391	-0.001
C	-44.076	-3.248	-0.001
C	-43.548	-1.948	-0.001
C	-41.345	-0.507	-0.001
C	-39.932	-1.071	-0.001
C	-39.964	-2.451	-0.001
C	-44.054	-5.687	-0.001
C	-45.467	-5.123	-0.001
C	-45.435	-3.743	-0.001
C	-41.62	0.334	1.265
C	-41.62	0.335	-1.268
C	-43.78	-6.529	1.265
C	-43.78	-6.529	-1.268
H	-38.374	0.513	-0.001
H	-47.023	-6.708	-0.002
H	-41.193	-5.112	-0.001
H	-44.206	-1.082	-0.001
H	-41.434	-0.248	2.173
H	-40.972	1.218	1.286
H	-42.66	0.678	1.284
H	-41.434	-0.248	-2.176
H	-42.66	0.678	-1.287
H	-40.972	1.218	-1.288
H	-43.965	-5.946	2.173
H	-44.428	-7.412	1.286
H	-42.74	-6.873	1.284
H	-43.965	-5.946	-2.176
H	-42.739	-6.873	-1.287
H	-44.428	-7.412	-1.289
S	-38.377	-3.139	-0.001
C	-38.625	-0.539	-0.001
C	-37.642	-1.519	-0.001
C	-52.166	-5.033	-0.002
C	-51.325	-6.207	-0.002
C	-51.471	-3.829	-0.001
N	-51.755	-7.472	-0.002
N	-49.257	-7.29	-0.001
S	-50.429	-8.44	-0.001
H	-49.648	-2.724	-0.001
H	-52.03	-2.897	-0.001
C	-50.065	-3.727	-0.001
C	-49.866	-6.101	-0.001
C	-49.204	-4.817	-0.001
C	-64.084	-3.441	-0.002
C	-63.251	-2.33	-0.002
S	-63.121	-4.94	-0.002
C	-58.137	-5.475	-0.002
C	-57.466	-4.222	-0.002
C	-58.176	-3.012	-0.002
C	-59.562	-3.069	-0.002
C	-60.233	-4.322	-0.002
C	-59.523	-5.532	-0.002
C	-57.134	-6.639	-0.002
C	-55.818	-5.876	-0.002
C	-56.049	-4.516	-0.002
C	-60.565	-1.905	-0.002
C	-61.881	-2.668	-0.002
C	-61.65	-4.029	-0.002
C	-57.284	-7.511	-1.268
C	-57.284	-7.511	1.265
C	-60.415	-1.033	-1.268
C	-60.415	-1.033	1.265
H	-54.047	-7.219	-0.002
H	-63.65	-1.324	-0.002
H	-57.65	-2.06	-0.002
H	-60.049	-6.484	-0.002
H	-57.185	-6.908	-2.176
H	-56.515	-8.292	-1.289
H	-58.264	-8.002	-1.287
H	-57.185	-6.908	2.173
H	-58.264	-8.002	1.284
H	-56.515	-8.292	1.285
H	-60.514	-1.636	-2.176
H	-61.184	-0.252	-1.289
H	-59.435	-0.542	-1.287
H	-60.514	-1.636	2.173
H	-59.435	-0.542	1.284
H	-61.184	-0.253	1.286
S	-54.578	-3.605	-0.002
C	-54.447	-6.214	-0.002
C	-53.616	-5.102	-0.002
C	-68.497	-3.727	-0.002
C	-67.834	-2.443	-0.002
C	-67.635	-4.818	-0.002
N	-68.443	-1.254	-0.002
N	-65.944	-1.072	-0.002
S	-67.271	-0.104	-0.002
H	-65.67	-5.647	-0.002
H	-68.053	-5.82	-0.002
C	-66.229	-4.715	-0.002
C	-66.375	-2.336	-0.002
C	-65.534	-3.511	-0.002
C	-80.058	-7.025	-0.002
C	-79.073	-8.005	-0.002
S	-79.322	-5.403	-0.002
C	-74.468	-4.152	-0.002
C	-73.623	-5.295	-0.002
C	-74.151	-6.595	-0.002
C	-75.53	-6.74	-0.002
C	-76.376	-5.596	-0.002
C	-75.848	-4.297	-0.002
C	-73.645	-2.856	-0.002
C	-72.232	-3.42	-0.002
C	-72.263	-4.799	-0.002
C	-76.354	-8.036	-0.002
C	-77.767	-7.472	-0.002
C	-77.735	-6.092	-0.002
C	-73.919	-2.014	1.265
C	-73.919	-2.014	-1.268
C	-76.08	-8.877	1.264
C	-76.08	-8.877	-1.269
H	-70.674	-1.835	-0.002
H	-79.323	-9.057	-0.002
H	-73.492	-7.461	-0.002
H	-76.506	-3.431	-0.002
H	-73.734	-2.596	2.173
H	-73.272	-1.13	1.285
H	-74.96	-1.671	1.284
H	-73.734	-2.596	-2.176
H	-74.96	-1.67	-1.287
H	-73.272	-1.13	-1.289
H	-76.265	-8.295	2.172
H	-76.728	-9.761	1.285
H	-75.039	-9.222	1.283
H	-76.265	-8.295	-2.177
H	-75.039	-9.222	-1.288
H	-76.728	-9.761	-1.29
S	-70.677	-5.488	-0.002
C	-70.924	-2.888	-0.002
C	-69.941	-3.867	-0.002
C	-84.466	-7.381	-0.002
C	-83.624	-8.556	-0.002
C	-83.771	-6.177	-0.002
N	-84.055	-9.82	-0.002
N	-81.556	-9.639	-0.002
S	-82.729	-10.788	-0.002
H	-81.947	-5.073	-0.002
H	-84.33	-5.246	-0.002
C	-82.365	-6.075	-0.002
C	-82.166	-8.45	-0.002
C	-81.503	-7.166	-0.002
C	-96.383	-5.79	-0.003
C	-95.551	-4.678	-0.002
S	-95.42	-7.288	-0.003
C	-90.436	-7.824	-0.003
C	-89.766	-6.571	-0.002
C	-90.476	-5.361	-0.002
C	-91.862	-5.417	-0.002
C	-92.533	-6.671	-0.003
C	-91.822	-7.881	-0.003
C	-89.434	-8.987	-0.003
C	-88.117	-8.225	-0.003
C	-88.348	-6.865	-0.002
C	-92.864	-4.254	-0.002
C	-94.181	-5.016	-0.002
C	-93.949	-6.377	-0.003
C	-89.584	-9.86	-1.269
C	-89.584	-9.86	1.264
C	-92.715	-3.381	-1.269
C	-92.715	-3.382	1.264
H	-86.347	-9.567	-0.003
H	-95.949	-3.673	-0.002
H	-89.95	-4.409	-0.002
H	-92.348	-8.832	-0.003
H	-89.485	-9.257	-2.177
H	-88.815	-10.641	-1.29
H	-90.564	-10.35	-1.288
H	-89.485	-9.257	2.172
H	-90.564	-10.351	1.283
H	-88.815	-10.641	1.285
H	-92.814	-3.984	-2.177
H	-93.484	-2.601	-1.29
H	-91.735	-2.89	-1.288
H	-92.814	-3.985	2.172
H	-91.735	-2.89	1.283
H	-93.484	-2.601	1.285
S	-86.878	-5.953	-0.002
C	-86.747	-8.562	-0.002
C	-85.916	-7.451	-0.002
C	-100.796	-6.075	-0.003
C	-100.133	-4.791	-0.003
C	-99.934	-7.166	-0.003
N	-100.743	-3.602	-0.003
N	-98.244	-3.421	-0.003
S	-99.57	-2.453	-0.003
H	-97.97	-7.995	-0.003
H	-100.352	-8.169	-0.003
C	-98.528	-7.064	-0.003
C	-98.675	-4.685	-0.003
C	-97.834	-5.86	-0.003
C	-112.358	-9.374	-0.003
C	-111.373	-10.353	-0.003
S	-111.622	-7.752	-0.003
C	-106.768	-6.501	-0.003
C	-105.923	-7.644	-0.003
C	-106.45	-8.944	-0.003
C	-107.83	-9.088	-0.003
C	-108.675	-7.945	-0.003
C	-108.147	-6.645	-0.003
C	-105.944	-5.204	-0.003
C	-104.531	-5.768	-0.003
C	-104.563	-7.148	-0.003
C	-108.654	-10.384	-0.003
C	-110.067	-9.82	-0.003
C	-110.035	-8.44	-0.003
C	-106.219	-4.363	1.264
C	-106.219	-4.363	-1.269
C	-108.379	-11.226	1.263
C	-108.379	-11.226	-1.27
H	-102.974	-4.184	-0.003
H	-111.622	-11.406	-0.003
H	-105.792	-9.809	-0.003
H	-108.806	-5.78	-0.003
H	-106.034	-4.945	2.172
H	-105.571	-3.479	1.285
H	-107.26	-4.019	1.283
H	-106.033	-4.945	-2.177
H	-107.26	-4.019	-1.288
H	-105.571	-3.479	-1.29
H	-108.565	-10.644	2.171
H	-109.028	-12.11	1.284
H	-107.339	-11.57	1.282
H	-108.564	-10.644	-2.178
H	-107.339	-11.57	-1.289
H	-109.028	-12.109	-1.291
S	-102.976	-7.837	-0.003
C	-103.224	-5.236	-0.003
C	-102.241	-6.216	-0.003
C	-116.766	-9.73	-0.003
C	-115.924	-10.905	-0.003
C	-116.071	-8.526	-0.003
N	-116.355	-12.169	-0.003
N	-113.856	-11.987	-0.003
S	-115.028	-13.137	-0.003
H	-114.247	-7.421	-0.003
H	-116.629	-7.594	-0.003
C	-114.665	-8.424	-0.003
C	-114.465	-10.799	-0.003
C	-113.803	-9.515	-0.003
C	-128.683	-8.139	-0.003
C	-127.85	-7.027	-0.003
S	-127.72	-9.637	-0.003
C	-122.736	-10.172	-0.003
C	-122.065	-8.919	-0.003
C	-122.775	-7.709	-0.003
C	-124.161	-7.766	-0.003
C	-124.832	-9.019	-0.003
C	-124.122	-10.229	-0.003
C	-121.734	-11.336	-0.003
C	-120.417	-10.574	-0.003
C	-120.648	-9.213	-0.003
C	-125.164	-6.603	-0.003
C	-126.481	-7.365	-0.003
C	-126.249	-8.726	-0.003
C	-121.884	-12.208	-1.27
C	-121.884	-12.209	1.263
C	-125.014	-5.73	-1.27
C	-125.014	-5.73	1.263
H	-118.646	-11.916	-0.003
H	-128.249	-6.022	-0.003
H	-122.249	-6.758	-0.003
H	-124.648	-11.181	-0.003
H	-121.784	-11.605	-2.178
H	-121.115	-12.989	-1.291
H	-122.864	-12.699	-1.289
H	-121.784	-11.606	2.171
H	-122.864	-12.699	1.282
H	-121.115	-12.989	1.284
H	-125.113	-6.333	-2.178
H	-125.784	-4.95	-1.291
H	-124.034	-5.239	-1.289
H	-125.113	-6.333	2.171
H	-124.035	-5.239	1.282
H	-125.784	-4.95	1.284
S	-119.178	-8.302	-0.003
C	-119.046	-10.911	-0.003
C	-118.215	-9.799	-0.003
C	-133.096	-8.424	-0.004
C	-132.433	-7.14	-0.004
C	-132.234	-9.515	-0.004
N	-133.042	-5.951	-0.004
N	-130.543	-5.769	-0.003
S	-131.87	-4.802	-0.004
H	-130.27	-10.344	-0.003
H	-132.652	-10.517	-0.004
C	-130.828	-9.412	-0.004
C	-130.974	-7.034	-0.003
C	-130.133	-8.208	-0.003
C	-144.658	-11.722	-0.004
C	-143.673	-12.702	-0.004
S	-143.921	-10.1	-0.004
C	-139.067	-8.849	-0.004
C	-138.222	-9.992	-0.004
C	-138.75	-11.292	-0.004
C	-140.129	-11.437	-0.004
C	-140.975	-10.294	-0.004
C	-140.447	-8.994	-0.004
C	-138.244	-7.553	-0.004
C	-136.831	-8.117	-0.004
C	-136.863	-9.496	-0.004
C	-140.953	-12.733	-0.004
C	-142.366	-12.169	-0.004
C	-142.334	-10.789	-0.004
C	-138.519	-6.711	1.263
C	-138.519	-6.711	-1.27
C	-140.679	-13.575	1.262
C	-140.679	-13.575	-1.27
H	-135.273	-6.533	-0.003
H	-143.922	-13.754	-0.004
H	-138.092	-12.158	-0.004
H	-141.105	-8.128	-0.004
H	-138.333	-7.294	2.171
H	-137.871	-5.828	1.284
H	-139.559	-6.368	1.282
H	-138.333	-7.294	-2.178
H	-139.559	-6.368	-1.289
H	-137.871	-5.827	-1.291
H	-140.864	-12.992	2.171
H	-141.327	-14.458	1.283
H	-139.638	-13.919	1.282
H	-140.864	-12.992	-2.178
H	-139.638	-13.919	-1.289
H	-141.327	-14.458	-1.291
S	-135.276	-10.185	-0.004
C	-135.523	-7.585	-0.004
C	-134.54	-8.564	-0.004
C	-149.065	-12.079	-0.004
C	-148.223	-13.253	-0.004
C	-148.37	-10.875	-0.004
N	-148.654	-14.518	-0.004
N	-146.155	-14.336	-0.004
S	-147.328	-15.486	-0.004
H	-146.547	-9.77	-0.004
H	-148.929	-9.943	-0.004
C	-146.964	-10.773	-0.004
C	-146.765	-13.147	-0.004
C	-146.103	-11.863	-0.004
H	12.065	-0.443	0.0
H	-150.146	-12.132	-0.004
