492
IDTBO_10
C	-0.746	1.076	0.0
C	-1.561	2.201	0.0
S	-1.724	-0.409	0.0
C	-6.712	-0.88	0.0
C	-7.367	0.382	0.0
C	-6.642	1.584	0.0
C	-5.258	1.51	0.0
C	-4.602	0.248	0.0
C	-5.327	-0.953	0.0
C	-7.729	-2.031	0.0
C	-9.035	-1.252	0.0
C	-8.787	0.106	0.0
C	-4.241	2.661	0.0
C	-2.934	1.882	0.0
C	-3.183	0.523	0.0
C	-7.59	-2.905	-1.267
C	-7.59	-2.905	1.267
C	-4.379	3.535	-1.267
C	-4.379	3.535	1.267
H	-10.821	-2.572	0.0
H	-1.15	3.203	0.0
H	-7.157	2.542	0.0
H	-4.813	-1.911	0.0
H	-7.682	-2.301	-2.175
H	-8.368	-3.677	-1.287
H	-6.616	-3.408	-1.285
H	-7.682	-2.301	2.175
H	-6.616	-3.408	1.285
H	-8.368	-3.677	1.287
H	-4.288	2.931	-2.175
H	-3.6	4.306	-1.287
H	-5.352	4.039	-1.285
H	-4.288	2.931	2.175
H	-5.352	4.039	1.285
H	-3.6	4.306	1.287
S	-10.245	1.038	0.0
C	-10.41	-1.57	0.0
C	-11.222	-0.445	0.0
C	3.679	0.851	0.0
C	2.972	2.11	-0.0
C	2.838	-0.254	0.0
N	3.452	3.341	-0.0
N	1.181	3.458	-0.0
O	2.356	4.156	-0.0
H	0.885	-1.124	0.0
H	3.276	-1.248	0.0
C	1.423	-0.181	0.0
C	1.531	2.185	-0.0
C	0.7	1.005	0.0
C	15.388	-1.817	-0.0
C	14.462	-2.853	-0.0
S	14.568	-0.24	-0.0
C	9.655	0.742	-0.0
C	8.874	-0.446	-0.0
C	9.471	-1.716	-0.0
C	10.856	-1.785	-0.0
C	11.637	-0.597	-0.0
C	11.04	0.673	-0.0
C	8.762	1.992	-0.0
C	7.382	1.351	-0.0
C	7.489	-0.025	-0.0
C	11.749	-3.034	-0.0
C	13.129	-2.394	-0.0
C	13.021	-1.017	-0.0
C	8.99	2.847	1.267
C	8.99	2.847	-1.267
C	11.521	-3.89	1.266
C	11.521	-3.89	-1.267
H	5.742	2.848	-0.0
H	14.768	-3.891	-0.0
H	8.861	-2.616	-0.0
H	11.65	1.573	-0.0
H	8.837	2.256	2.175
H	8.296	3.695	1.287
H	10.01	3.247	1.285
H	8.836	2.256	-2.175
H	10.01	3.247	-1.286
H	8.296	3.695	-1.287
H	11.674	-3.298	2.175
H	12.217	-4.736	1.287
H	10.502	-4.29	1.285
H	11.674	-3.298	-2.175
H	10.501	-4.29	-1.286
H	12.217	-4.736	-1.287
S	5.943	-0.802	-0.0
C	6.048	1.809	-0.0
C	5.124	0.773	-0.0
C	19.813	-2.049	-0.0
C	18.98	-3.229	-0.0
C	19.09	-0.863	-0.0
N	19.33	-4.502	-0.0
N	17.06	-4.385	-0.0
O	18.156	-5.2	-0.0
H	17.237	0.204	-0.0
H	19.627	0.081	-0.0
C	17.675	-0.79	-0.0
C	17.539	-3.154	-0.0
C	16.834	-1.895	-0.0
C	31.734	-0.599	-0.0
C	30.92	0.527	-0.0
S	30.756	-2.083	-0.0
C	25.768	-2.554	-0.0
C	25.113	-1.292	-0.0
C	25.838	-0.091	-0.0
C	27.223	-0.164	-0.0
C	27.878	-1.427	-0.0
C	27.153	-2.628	-0.0
C	24.752	-3.705	-0.0
C	23.445	-2.927	-0.0
C	23.693	-1.568	-0.0
C	28.239	0.987	-0.0
C	29.546	0.207	-0.0
C	29.298	-1.151	-0.0
C	24.89	-4.58	-1.267
C	24.89	-4.58	1.266
C	28.101	1.861	-1.267
C	28.101	1.861	1.266
H	21.659	-4.246	-0.0
H	31.331	1.529	-0.0
H	25.324	0.867	-0.0
H	27.667	-3.586	-0.0
H	24.798	-3.976	-2.175
H	24.112	-5.351	-1.287
H	25.864	-5.082	-1.286
H	24.798	-3.976	2.175
H	25.864	-5.082	1.285
H	24.112	-5.351	1.287
H	28.193	1.257	-2.175
H	28.88	2.631	-1.287
H	27.128	2.364	-1.286
H	28.193	1.257	2.175
H	27.128	2.364	1.285
H	28.88	2.631	1.287
S	22.235	-0.636	-0.0
C	22.071	-3.245	-0.0
C	21.258	-2.119	-0.0
C	36.159	-0.823	-0.0
C	35.453	0.436	-0.0
C	35.318	-1.928	-0.0
N	35.932	1.666	-0.001
N	33.661	1.783	-0.0
O	34.836	2.481	-0.001
H	33.365	-2.799	-0.0
H	35.756	-2.922	-0.0
C	33.903	-1.855	-0.0
C	34.011	0.51	-0.0
C	33.18	-0.669	-0.0
C	47.868	-3.492	-0.001
C	46.942	-4.527	-0.001
S	47.048	-1.914	-0.001
C	42.135	-0.933	-0.0
C	41.354	-2.12	-0.0
C	41.951	-3.39	-0.0
C	43.336	-3.459	-0.001
C	44.117	-2.271	-0.001
C	43.52	-1.002	-0.001
C	41.242	0.317	-0.0
C	39.862	-0.323	-0.0
C	39.969	-1.7	-0.0
C	44.229	-4.709	-0.001
C	45.609	-4.068	-0.001
C	45.501	-2.691	-0.001
C	41.47	1.172	1.266
C	41.47	1.172	-1.267
C	44.002	-5.564	1.266
C	44.002	-5.564	-1.267
H	38.222	1.173	-0.0
H	47.248	-5.566	-0.001
H	41.341	-4.29	-0.0
H	44.13	-0.102	-0.001
H	41.317	0.581	2.174
H	40.776	2.02	1.287
H	42.491	1.572	1.285
H	41.317	0.581	-2.175
H	42.491	1.572	-1.286
H	40.776	2.02	-1.287
H	44.155	-4.973	2.174
H	44.697	-6.411	1.287
H	42.982	-5.965	1.285
H	44.154	-4.973	-2.175
H	42.982	-5.965	-1.286
H	44.697	-6.411	-1.288
S	38.423	-2.477	-0.0
C	38.528	0.135	-0.0
C	37.604	-0.901	-0.0
C	52.293	-3.724	-0.001
C	51.46	-4.903	-0.001
C	51.57	-2.538	-0.001
N	51.81	-6.176	-0.0
N	49.54	-6.059	-0.0
O	50.636	-6.874	-0.0
H	49.717	-1.471	-0.001
H	52.108	-1.594	-0.001
C	50.155	-2.465	-0.001
C	50.019	-4.829	-0.001
C	49.314	-3.57	-0.001
C	64.214	-2.273	-0.001
C	63.4	-1.148	-0.001
S	63.237	-3.758	-0.001
C	58.248	-4.229	-0.001
C	57.593	-2.967	-0.001
C	58.318	-1.765	-0.001
C	59.703	-1.839	-0.001
C	60.358	-3.101	-0.001
C	59.633	-4.302	-0.001
C	57.232	-5.38	-0.001
C	55.925	-4.601	-0.001
C	56.173	-3.243	-0.001
C	60.72	-0.688	-0.001
C	62.026	-1.467	-0.001
C	61.778	-2.826	-0.001
C	57.37	-6.254	-1.267
C	57.37	-6.254	1.266
C	60.582	0.186	-1.267
C	60.582	0.186	1.266
H	54.139	-5.921	-0.001
H	63.811	-0.146	-0.001
H	57.804	-0.807	-0.001
H	60.147	-5.26	-0.001
H	57.278	-5.65	-2.176
H	56.592	-7.026	-1.288
H	58.344	-6.757	-1.286
H	57.278	-5.65	2.174
H	58.344	-6.757	1.285
H	56.592	-7.026	1.286
H	60.673	-0.418	-2.175
H	61.36	0.957	-1.288
H	59.608	0.69	-1.286
H	60.673	-0.418	2.174
H	59.608	0.69	1.285
H	61.36	0.957	1.287
S	54.715	-2.311	-0.001
C	54.551	-4.919	-0.001
C	53.738	-3.794	-0.001
C	68.639	-2.498	-0.001
C	67.933	-1.239	-0.001
C	67.798	-3.603	-0.001
N	68.412	-0.008	-0.001
N	66.141	0.109	-0.001
O	67.316	0.807	-0.001
H	65.846	-4.473	-0.0
H	68.236	-4.597	-0.001
C	66.383	-3.53	-0.001
C	66.492	-1.164	-0.001
C	65.66	-2.344	-0.001
C	80.348	-5.166	-0.001
C	79.422	-6.202	-0.001
S	79.529	-3.589	-0.001
C	74.615	-2.607	-0.001
C	73.834	-3.795	-0.001
C	74.431	-5.065	-0.001
C	75.816	-5.134	-0.001
C	76.598	-3.946	-0.001
C	76.0	-2.676	-0.001
C	73.722	-1.357	-0.001
C	72.343	-1.998	-0.001
C	72.45	-3.374	-0.001
C	76.709	-6.383	-0.001
C	78.089	-5.743	-0.001
C	77.982	-4.366	-0.001
C	73.95	-0.502	1.266
C	73.95	-0.502	-1.268
C	76.482	-7.239	1.266
C	76.482	-7.239	-1.268
H	70.702	-0.501	-0.001
H	79.728	-7.241	-0.001
H	73.821	-5.965	-0.001
H	76.61	-1.776	-0.001
H	73.797	-1.093	2.174
H	73.256	0.345	1.286
H	74.971	-0.103	1.285
H	73.797	-1.093	-2.176
H	74.971	-0.103	-1.286
H	73.256	0.346	-1.288
H	76.635	-6.647	2.174
H	77.177	-8.085	1.286
H	75.462	-7.64	1.284
H	76.635	-6.647	-2.176
H	75.462	-7.64	-1.286
H	77.177	-8.085	-1.288
S	70.903	-4.152	-0.001
C	71.008	-1.54	-0.001
C	70.084	-2.576	-0.001
C	84.773	-5.398	-0.001
C	83.941	-6.578	-0.001
C	84.05	-4.212	-0.001
N	84.291	-7.851	-0.001
N	82.02	-7.734	-0.001
O	83.117	-8.549	-0.001
H	82.197	-3.145	-0.001
H	84.588	-3.268	-0.001
C	82.635	-4.14	-0.001
C	82.5	-6.503	-0.001
C	81.794	-5.244	-0.001
C	96.695	-3.948	-0.001
C	95.88	-2.822	-0.001
S	95.717	-5.432	-0.001
C	90.728	-5.903	-0.001
C	90.074	-4.641	-0.001
C	90.798	-3.44	-0.001
C	92.183	-3.513	-0.001
C	92.838	-4.776	-0.001
C	92.113	-5.977	-0.001
C	89.712	-7.055	-0.001
C	88.405	-6.276	-0.001
C	88.653	-4.917	-0.001
C	93.2	-2.363	-0.001
C	94.506	-3.142	-0.001
C	94.258	-4.5	-0.001
C	89.851	-7.929	-1.268
C	89.851	-7.929	1.266
C	93.062	-1.488	-1.268
C	93.062	-1.488	1.266
H	86.619	-7.595	-0.001
H	96.291	-1.82	-0.001
H	90.284	-2.482	-0.001
H	92.628	-6.935	-0.001
H	89.759	-7.325	-2.176
H	89.073	-8.7	-1.288
H	90.824	-8.431	-1.286
H	89.759	-7.325	2.174
H	90.824	-8.431	1.284
H	89.073	-8.7	1.286
H	93.153	-2.092	-2.176
H	93.841	-0.718	-1.288
H	92.088	-0.985	-1.286
H	93.153	-2.092	2.174
H	92.088	-0.985	1.284
H	93.841	-0.718	1.286
S	87.195	-3.985	-0.001
C	87.031	-6.594	-0.001
C	86.218	-5.468	-0.001
C	101.12	-4.172	-0.001
C	100.413	-2.913	-0.001
C	100.278	-5.278	-0.001
N	100.892	-1.683	-0.001
N	98.622	-1.566	-0.001
O	99.796	-0.868	-0.001
H	98.326	-6.148	-0.001
H	100.716	-6.272	-0.001
C	98.864	-5.204	-0.001
C	98.972	-2.839	-0.001
C	98.141	-4.019	-0.001
C	112.829	-6.841	-0.001
C	111.902	-7.876	-0.001
S	112.009	-5.264	-0.001
C	107.095	-4.282	-0.001
C	106.314	-5.47	-0.001
C	106.911	-6.739	-0.001
C	108.296	-6.808	-0.001
C	109.078	-5.62	-0.001
C	108.48	-4.351	-0.001
C	106.203	-3.032	-0.001
C	104.823	-3.672	-0.001
C	104.93	-5.049	-0.001
C	109.189	-8.058	-0.001
C	110.569	-7.417	-0.001
C	110.462	-6.04	-0.001
C	106.431	-2.177	1.266
C	106.431	-2.177	-1.268
C	108.962	-8.913	1.265
C	108.962	-8.913	-1.268
H	103.182	-2.176	-0.001
H	112.208	-8.915	-0.001
H	106.301	-7.639	-0.001
H	109.091	-3.451	-0.001
H	106.277	-2.768	2.174
H	105.736	-1.329	1.286
H	107.451	-1.777	1.284
H	106.277	-2.768	-2.176
H	107.451	-1.777	-1.287
H	105.736	-1.329	-1.288
H	109.115	-8.322	2.174
H	109.658	-9.76	1.286
H	107.942	-9.314	1.284
H	109.115	-8.322	-2.176
H	107.942	-9.314	-1.287
H	109.658	-9.76	-1.288
S	103.384	-5.826	-0.001
C	103.489	-3.214	-0.001
C	102.564	-4.25	-0.001
C	117.253	-7.073	-0.001
C	116.421	-8.252	-0.001
C	116.53	-5.887	-0.001
N	116.771	-9.525	-0.001
N	114.5	-9.408	-0.001
O	115.597	-10.224	-0.001
H	114.677	-4.82	-0.002
H	117.068	-4.943	-0.002
C	115.115	-5.814	-0.001
C	114.98	-8.178	-0.001
C	114.274	-6.919	-0.001
C	129.175	-5.622	-0.001
C	128.36	-4.497	-0.001
S	128.197	-7.107	-0.001
C	123.208	-7.578	-0.001
C	122.554	-6.316	-0.001
C	123.278	-5.114	-0.001
C	124.663	-5.188	-0.001
C	125.318	-6.45	-0.001
C	124.593	-7.651	-0.001
C	122.192	-8.729	-0.001
C	120.885	-7.95	-0.001
C	121.133	-6.592	-0.001
C	125.68	-4.037	-0.001
C	126.987	-4.816	-0.001
C	126.738	-6.175	-0.001
C	122.331	-9.603	-1.268
C	122.331	-9.603	1.265
C	125.542	-3.163	-1.268
C	125.542	-3.163	1.265
H	119.099	-9.27	-0.001
H	128.771	-3.495	-0.001
H	122.764	-4.156	-0.001
H	125.108	-8.609	-0.001
H	122.239	-8.999	-2.176
H	121.553	-10.375	-1.288
H	123.305	-10.106	-1.287
H	122.239	-8.999	2.174
H	123.305	-10.106	1.284
H	121.553	-10.375	1.286
H	125.633	-3.767	-2.176
H	126.321	-2.392	-1.289
H	124.569	-2.659	-1.287
H	125.633	-3.767	2.174
H	124.569	-2.659	1.284
H	126.321	-2.392	1.286
S	119.676	-5.66	-0.001
C	119.511	-8.268	-0.001
C	118.698	-7.143	-0.001
C	133.6	-5.847	-0.001
C	132.893	-4.588	-0.001
C	132.759	-6.952	-0.001
N	133.372	-3.357	-0.002
N	131.102	-3.24	-0.002
O	132.276	-2.542	-0.002
H	130.806	-7.822	-0.001
H	133.196	-7.946	-0.001
C	131.344	-6.879	-0.001
C	131.452	-4.513	-0.001
C	130.621	-5.693	-0.001
C	145.309	-8.515	-0.002
C	144.383	-9.551	-0.002
S	144.489	-6.938	-0.002
C	139.575	-5.956	-0.002
C	138.794	-7.144	-0.002
C	139.392	-8.414	-0.002
C	140.776	-8.483	-0.002
C	141.558	-7.295	-0.002
C	140.961	-6.025	-0.002
C	138.683	-4.706	-0.002
C	137.303	-5.347	-0.001
C	137.41	-6.724	-0.001
C	141.67	-9.732	-0.002
C	143.049	-9.092	-0.002
C	142.942	-7.715	-0.002
C	138.911	-3.851	1.265
C	138.911	-3.851	-1.268
C	141.442	-10.588	1.265
C	141.442	-10.588	-1.268
H	135.662	-3.85	-0.001
H	144.688	-10.59	-0.002
H	138.781	-9.314	-0.002
H	141.571	-5.125	-0.002
H	138.757	-4.442	2.173
H	138.216	-3.004	1.286
H	139.931	-3.452	1.284
H	138.757	-4.442	-2.176
H	139.931	-3.452	-1.287
H	138.216	-3.004	-1.288
H	141.595	-9.996	2.173
H	142.138	-11.434	1.286
H	140.422	-10.989	1.284
H	141.595	-9.996	-2.176
H	140.422	-10.989	-1.287
H	142.138	-11.434	-1.289
S	135.864	-7.501	-0.001
C	135.969	-4.889	-0.001
C	135.044	-5.925	-0.001
C	149.733	-8.747	-0.002
C	148.901	-9.927	-0.002
C	149.01	-7.561	-0.002
N	149.251	-11.2	-0.002
N	146.98	-11.083	-0.002
O	148.077	-11.898	-0.001
H	147.158	-6.494	-0.002
H	149.548	-6.618	-0.002
C	147.596	-7.489	-0.002
C	147.46	-9.853	-0.002
C	146.754	-8.594	-0.002
H	-12.304	-0.468	-0.0
H	150.815	-8.783	-0.002
