492
IDTBTF_10
C	-0.301	1.104	-0.0
C	-1.127	2.226	-0.0
S	-1.282	-0.386	0.0
C	-6.266	-0.87	0.0
C	-6.925	0.39	0.0
C	-6.204	1.593	-0.0
C	-4.819	1.524	-0.0
C	-4.159	0.264	0.0
C	-4.88	-0.939	0.0
C	-7.278	-2.025	0.0
C	-8.588	-1.25	0.0
C	-8.344	0.109	0.0
C	-3.805	2.678	-0.0
C	-2.497	1.902	-0.0
C	-2.738	0.542	0.0
C	-7.136	-2.898	1.267
C	-7.136	-2.898	-1.266
C	-3.947	3.552	1.266
C	-3.947	3.552	-1.267
H	-10.371	-2.575	0.0
H	-0.721	3.228	-0.0
H	-6.721	2.55	-0.0
H	-4.362	-1.895	0.0
H	-7.23	-2.294	2.175
H	-7.91	-3.673	1.287
H	-6.16	-3.396	1.286
H	-7.23	-2.295	-2.174
H	-6.16	-3.396	-1.285
H	-7.91	-3.673	-1.287
H	-3.854	2.948	2.174
H	-3.17	4.325	1.287
H	-4.921	4.053	1.285
H	-3.854	2.948	-2.175
H	-4.921	4.053	-1.286
H	-3.17	4.324	-1.288
S	-9.805	1.034	-0.0
C	-9.961	-1.574	0.0
C	-10.78	-0.453	0.0
C	4.14	0.92	-0.0
C	3.441	2.186	-0.0
C	3.308	-0.189	0.0
N	4.021	3.387	-0.0
N	1.521	3.508	-0.0
S	2.823	4.509	-0.0
F	1.265	-1.292	0.0
H	3.714	-1.195	0.0
C	1.905	-0.099	0.0
C	1.979	2.254	-0.0
C	1.15	1.066	-0.0
C	15.863	-1.76	0.0
C	14.932	-2.795	0.0
S	15.032	-0.181	-0.0
C	10.12	0.787	-0.0
C	9.341	-0.402	0.0
C	9.941	-1.671	0.0
C	11.326	-1.737	0.0
C	12.106	-0.548	0.0
C	11.505	0.72	-0.0
C	9.225	2.035	-0.0
C	7.846	1.392	-0.0
C	7.956	0.016	-0.0
C	12.222	-2.984	0.0
C	13.6	-2.339	0.0
C	13.493	-0.962	0.0
C	9.452	2.89	-1.267
C	9.452	2.89	1.266
C	11.996	-3.84	-1.266
C	11.996	-3.84	1.267
H	6.201	2.884	-0.0
H	15.239	-3.832	0.0
H	9.333	-2.572	0.0
H	12.114	1.622	-0.0
H	9.299	2.299	-2.175
H	8.756	3.737	-1.287
H	10.472	3.291	-1.286
H	9.299	2.299	2.174
H	10.472	3.291	1.285
H	8.756	3.737	1.287
H	12.148	-3.248	-2.174
H	12.694	-4.685	-1.287
H	10.977	-4.244	-1.285
H	12.148	-3.248	2.175
H	10.977	-4.244	1.286
H	12.694	-4.685	1.288
S	6.412	-0.763	0.0
C	6.511	1.848	-0.0
C	5.586	0.813	-0.0
C	20.301	-2.009	0.0
C	19.482	-3.201	0.0
C	19.581	-0.824	0.0
N	19.942	-4.453	0.0
N	17.442	-4.329	0.0
S	18.64	-5.453	0.0
F	17.655	0.472	-0.0
H	20.083	0.137	-0.0
C	18.176	-0.777	0.0
C	18.02	-3.126	0.0
C	17.311	-1.863	0.0
C	32.229	-0.494	-0.0
C	31.404	0.628	-0.0
S	31.248	-1.983	0.0
C	26.265	-2.467	0.0
C	25.606	-1.208	0.0
C	26.327	-0.004	-0.0
C	27.712	-0.074	-0.0
C	28.372	-1.333	0.0
C	27.651	-2.537	0.0
C	25.253	-3.622	0.0
C	23.943	-2.848	0.0
C	24.187	-1.489	0.0
C	28.726	1.08	-0.0
C	30.034	0.304	-0.0
C	29.793	-1.056	-0.0
C	25.395	-4.496	1.267
C	25.395	-4.496	-1.266
C	28.584	1.954	1.266
C	28.584	1.954	-1.267
H	22.16	-4.173	0.0
H	31.81	1.63	-0.0
H	25.809	0.952	-0.0
H	28.168	-3.493	0.0
H	25.301	-3.892	2.175
H	24.62	-5.271	1.287
H	26.371	-4.994	1.286
H	25.301	-3.893	-2.174
H	26.371	-4.994	-1.285
H	24.62	-5.271	-1.287
H	28.677	1.35	2.174
H	29.361	2.727	1.287
H	27.609	2.455	1.285
H	28.677	1.35	-2.175
H	27.609	2.455	-1.286
H	29.361	2.727	-1.288
S	22.726	-0.564	-0.0
C	22.57	-3.172	0.0
C	21.75	-2.051	0.0
C	36.671	-0.678	-0.0
C	35.972	0.588	-0.0
C	35.838	-1.787	0.0
N	36.552	1.789	-0.0
N	34.051	1.91	-0.0
S	35.354	2.911	-0.0
F	33.795	-2.889	0.0
H	36.244	-2.793	0.0
C	34.436	-1.697	0.0
C	34.509	0.656	-0.0
C	33.681	-0.532	-0.0
C	48.394	-3.357	0.0
C	47.463	-4.393	0.0
S	47.563	-1.779	-0.0
C	42.651	-0.811	-0.0
C	41.872	-2.0	0.0
C	42.472	-3.269	0.0
C	43.857	-3.335	0.0
C	44.637	-2.145	0.0
C	44.036	-0.878	-0.0
C	41.756	0.437	-0.0
C	40.377	-0.206	-0.0
C	40.486	-1.582	-0.0
C	44.753	-4.582	0.0
C	46.131	-3.937	0.0
C	46.023	-2.56	0.0
C	41.983	1.292	-1.267
C	41.983	1.293	1.266
C	44.527	-5.438	-1.266
C	44.527	-5.438	1.267
H	38.731	1.286	-0.0
H	47.769	-5.43	0.0
H	41.864	-4.17	0.0
H	44.645	0.024	-0.0
H	41.829	0.701	-2.175
H	41.287	2.139	-1.287
H	43.003	1.693	-1.286
H	41.829	0.701	2.174
H	43.003	1.693	1.285
H	41.287	2.139	1.287
H	44.679	-4.846	-2.174
H	45.225	-6.283	-1.287
H	43.508	-5.842	-1.285
H	44.679	-4.846	2.175
H	43.508	-5.841	1.286
H	45.225	-6.282	1.288
S	38.943	-2.361	0.0
C	39.042	0.25	-0.0
C	38.117	-0.785	-0.0
C	52.832	-3.607	0.0
C	52.013	-4.799	0.0
C	52.112	-2.422	0.0
N	52.473	-6.051	0.0
N	49.973	-5.927	0.0
S	51.171	-7.051	0.0
F	50.186	-1.126	-0.0
H	52.614	-1.46	-0.0
C	50.707	-2.375	0.0
C	50.551	-4.724	0.0
C	49.842	-3.461	0.0
C	64.76	-2.091	-0.0
C	63.935	-0.97	-0.0
S	63.779	-3.581	0.0
C	58.796	-4.065	0.0
C	58.137	-2.806	0.0
C	58.858	-1.602	-0.0
C	60.243	-1.672	-0.0
C	60.903	-2.931	0.0
C	60.181	-4.135	0.0
C	57.783	-5.22	0.0
C	56.474	-4.446	0.0
C	56.717	-3.087	0.0
C	61.256	-0.518	-0.0
C	62.565	-1.294	-0.0
C	62.323	-2.654	-0.0
C	57.926	-6.094	1.267
C	57.926	-6.094	-1.266
C	61.115	0.356	1.266
C	61.115	0.356	-1.267
H	54.691	-5.771	0.0
H	64.341	0.032	-0.0
H	58.34	-0.646	-0.0
H	60.699	-5.091	0.0
H	57.831	-5.49	2.175
H	57.151	-6.869	1.287
H	58.902	-6.592	1.286
H	57.831	-5.49	-2.174
H	58.902	-6.592	-1.285
H	57.151	-6.869	-1.287
H	61.208	-0.248	2.174
H	61.892	1.129	1.287
H	60.14	0.857	1.285
H	61.208	-0.248	-2.175
H	60.14	0.857	-1.286
H	61.892	1.129	-1.288
S	55.257	-2.161	-0.0
C	55.101	-4.77	0.0
C	54.281	-3.649	0.0
C	69.202	-2.276	-0.0
C	68.503	-1.009	-0.0
C	68.369	-3.385	0.0
N	69.083	0.192	-0.0
N	66.582	0.312	-0.0
S	67.884	1.313	-0.0
F	66.326	-4.487	0.0
H	68.775	-4.391	0.0
C	66.966	-3.295	0.0
C	67.04	-0.942	-0.0
C	66.212	-2.13	-0.0
C	80.924	-4.955	0.0
C	79.994	-5.991	0.0
S	80.093	-3.377	-0.0
C	75.181	-2.409	-0.0
C	74.403	-3.598	-0.0
C	75.003	-4.866	0.0
C	76.388	-4.933	0.0
C	77.168	-3.743	-0.0
C	76.567	-2.475	-0.0
C	74.286	-1.161	-0.0
C	72.907	-1.804	-0.0
C	73.017	-3.18	-0.0
C	77.284	-6.18	0.0
C	78.662	-5.535	0.0
C	78.554	-4.158	0.0
C	74.513	-0.305	-1.267
C	74.513	-0.305	1.266
C	77.058	-7.036	-1.266
C	77.058	-7.036	1.267
H	71.262	-0.312	-0.0
H	80.3	-7.028	0.0
H	74.394	-5.768	0.0
H	77.175	-1.574	-0.0
H	74.36	-0.897	-2.175
H	73.818	0.541	-1.287
H	75.533	0.095	-1.286
H	74.36	-0.897	2.174
H	75.533	0.095	1.285
H	73.818	0.542	1.287
H	77.209	-6.444	-2.174
H	77.756	-7.881	-1.287
H	76.039	-7.439	-1.285
H	77.209	-6.443	2.175
H	76.039	-7.439	1.286
H	77.756	-7.88	1.288
S	71.473	-3.959	0.0
C	71.573	-1.348	-0.0
C	70.647	-2.383	-0.0
C	85.363	-5.205	0.0
C	84.544	-6.397	0.0
C	84.643	-4.02	-0.0
N	85.004	-7.649	0.0
N	82.504	-7.525	0.0
S	83.702	-8.649	0.0
F	82.717	-2.723	-0.0
H	85.145	-3.058	-0.0
C	83.238	-3.973	-0.0
C	83.082	-6.322	0.0
C	82.373	-5.059	0.0
C	97.291	-3.689	-0.0
C	96.466	-2.568	-0.0
S	96.31	-5.179	0.0
C	91.327	-5.663	0.0
C	90.668	-4.404	-0.0
C	91.389	-3.2	-0.0
C	92.774	-3.269	-0.0
C	93.434	-4.529	-0.0
C	92.712	-5.732	0.0
C	90.314	-6.818	0.0
C	89.004	-6.044	0.0
C	89.248	-4.685	0.0
C	93.787	-2.115	-0.0
C	95.096	-2.892	-0.0
C	94.854	-4.252	-0.0
C	90.457	-7.692	1.267
C	90.457	-7.692	-1.266
C	93.645	-1.242	1.266
C	93.645	-1.242	-1.267
H	87.222	-7.369	0.0
H	96.871	-1.566	-0.0
H	90.871	-2.244	-0.0
H	93.23	-6.689	0.0
H	90.362	-7.088	2.175
H	89.682	-8.467	1.287
H	91.433	-8.19	1.286
H	90.362	-7.088	-2.174
H	91.433	-8.19	-1.285
H	89.682	-8.467	-1.287
H	93.739	-1.845	2.174
H	94.423	-0.469	1.287
H	92.671	-0.74	1.285
H	93.738	-1.846	-2.175
H	92.671	-0.741	-1.286
H	94.423	-0.469	-1.288
S	87.788	-3.759	-0.0
C	87.632	-6.368	0.0
C	86.812	-5.247	0.0
C	101.732	-3.874	-0.0
C	101.033	-2.607	-0.0
C	100.9	-4.983	-0.0
N	101.613	-1.406	-0.0
N	99.113	-1.286	-0.0
S	100.415	-0.284	-0.0
F	98.857	-6.085	0.0
H	101.306	-5.989	0.0
C	99.497	-4.892	-0.0
C	99.571	-2.54	-0.0
C	98.742	-3.728	-0.0
C	113.455	-6.553	0.0
C	112.525	-7.589	0.0
S	112.624	-4.975	-0.0
C	107.712	-4.007	-0.0
C	106.933	-5.196	-0.0
C	107.533	-6.464	0.0
C	108.919	-6.53	0.0
C	109.698	-5.341	-0.0
C	109.098	-4.073	-0.0
C	106.817	-2.759	-0.0
C	105.438	-3.401	-0.0
C	105.548	-4.778	-0.0
C	109.815	-7.778	0.0
C	111.193	-7.133	0.0
C	111.085	-5.756	-0.0
C	107.044	-1.903	-1.267
C	107.044	-1.903	1.266
C	109.589	-8.634	-1.266
C	109.589	-8.633	1.267
H	103.793	-1.909	-0.0
H	112.831	-8.626	0.0
H	106.925	-7.366	0.0
H	109.706	-3.172	-0.0
H	106.891	-2.495	-2.175
H	106.348	-1.057	-1.287
H	108.064	-1.503	-1.286
H	106.891	-2.495	2.174
H	108.064	-1.503	1.285
H	106.348	-1.056	1.287
H	109.74	-8.042	-2.174
H	110.287	-9.478	-1.287
H	108.57	-9.037	-1.285
H	109.74	-8.041	2.175
H	108.57	-9.037	1.286
H	110.287	-9.478	1.288
S	104.004	-5.557	0.0
C	104.103	-2.946	-0.0
C	103.178	-3.981	-0.0
C	117.894	-6.803	0.0
C	117.074	-7.995	0.0
C	117.173	-5.618	-0.0
N	117.534	-9.247	0.0
N	115.034	-9.123	0.0
S	116.233	-10.246	0.0
F	115.247	-4.321	-0.0
H	117.675	-4.656	-0.0
C	115.768	-5.571	-0.0
C	115.612	-7.92	0.0
C	114.904	-6.657	0.0
C	129.822	-5.287	-0.0
C	128.996	-4.165	-0.0
S	128.841	-6.777	0.0
C	123.857	-7.261	0.0
C	123.198	-6.002	-0.0
C	123.919	-4.798	-0.0
C	125.304	-4.867	-0.0
C	125.964	-6.127	-0.0
C	125.243	-7.33	0.0
C	122.845	-8.416	0.0
C	121.535	-7.642	0.0
C	121.779	-6.283	-0.0
C	126.318	-3.713	-0.0
C	127.626	-4.49	-0.0
C	127.385	-5.85	-0.0
C	122.987	-9.289	1.267
C	122.987	-9.29	-1.266
C	126.176	-2.839	1.266
C	126.176	-2.84	-1.267
H	119.752	-8.966	0.0
H	129.402	-3.164	-0.0
H	123.402	-3.842	-0.0
H	125.761	-8.286	0.0
H	122.893	-8.686	2.175
H	122.213	-10.064	1.287
H	123.963	-9.788	1.286
H	122.893	-8.686	-2.174
H	123.963	-9.788	-1.285
H	122.213	-10.065	-1.287
H	126.269	-3.443	2.174
H	126.953	-2.067	1.287
H	125.202	-2.338	1.285
H	126.269	-3.444	-2.175
H	125.202	-2.339	-1.286
H	126.953	-2.067	-1.288
S	120.318	-5.357	-0.0
C	120.162	-7.965	0.0
C	119.343	-6.845	0.0
C	134.263	-5.472	-0.0
C	133.564	-4.205	-0.0
C	133.431	-6.581	-0.0
N	134.144	-3.004	-0.0
N	131.644	-2.884	-0.0
S	132.946	-1.882	-0.0
F	131.388	-7.683	0.0
H	133.836	-7.587	0.0
C	132.028	-6.49	-0.0
C	132.102	-4.138	-0.0
C	131.273	-5.325	-0.0
C	145.986	-8.151	0.0
C	145.055	-9.187	0.0
S	145.155	-6.573	-0.0
C	140.243	-5.605	-0.0
C	139.464	-6.794	-0.0
C	140.064	-8.062	0.0
C	141.449	-8.128	0.0
C	142.229	-6.939	-0.0
C	141.628	-5.671	-0.0
C	139.348	-4.357	-0.0
C	137.969	-4.999	-0.0
C	138.079	-6.376	-0.0
C	142.345	-9.376	0.0
C	143.723	-8.731	0.0
C	143.616	-7.354	-0.0
C	139.575	-3.501	-1.267
C	139.575	-3.501	1.266
C	142.119	-10.232	-1.266
C	142.119	-10.231	1.267
H	136.324	-3.507	-0.0
H	145.361	-10.223	0.0
H	139.456	-8.963	0.0
H	142.237	-4.77	-0.0
H	139.422	-4.093	-2.175
H	138.879	-2.654	-1.287
H	140.595	-3.101	-1.286
H	139.422	-4.092	2.174
H	140.595	-3.1	1.285
H	138.879	-2.654	1.287
H	142.271	-9.64	-2.174
H	142.817	-11.076	-1.287
H	141.1	-10.635	-1.285
H	142.271	-9.639	2.175
H	141.1	-10.635	1.286
H	142.817	-11.076	1.288
S	136.535	-7.154	0.0
C	136.634	-4.543	-0.0
C	135.709	-5.579	-0.0
C	150.424	-8.401	0.0
C	149.605	-9.593	0.0
C	149.704	-7.216	-0.0
N	150.065	-10.845	0.0
N	147.565	-10.721	0.0
S	148.763	-11.844	0.0
F	147.778	-5.919	-0.0
H	150.206	-6.254	-0.0
C	148.299	-7.169	-0.0
C	148.143	-9.518	0.0
C	147.434	-8.255	0.0
H	-11.862	-0.481	0.0
H	151.506	-8.431	0.0
