552
IDTTBT_10
C	-0.523	1.285	0.0
C	-1.375	2.376	0.0
S	-1.442	-0.244	-0.0
C	-8.922	1.126	0.0
C	-8.97	-0.294	-0.0
C	-7.797	-1.064	-0.0
C	-6.58	-0.398	-0.0
C	-6.533	1.023	0.0
C	-7.706	1.792	0.0
C	-5.167	-0.998	-0.0
C	-4.327	0.269	-0.0
C	-5.133	1.391	0.0
C	-10.336	1.726	0.0
C	-11.176	0.46	0.0
C	-10.37	-0.662	-0.0
C	-12.546	0.112	0.0
C	-12.768	-1.27	-0.0
S	-11.256	-2.169	-0.0
C	-2.957	0.616	0.0
C	-2.735	1.998	0.0
S	-4.246	2.898	0.0
C	-10.589	2.572	1.268
C	-10.589	2.573	-1.268
C	-4.914	-1.844	1.268
C	-4.914	-1.844	-1.268
H	-7.657	2.878	0.0
H	-7.846	-2.15	-0.0
H	-1.008	3.393	0.0
H	-14.497	-2.664	-0.0
H	-5.572	-2.72	1.284
H	-3.877	-2.201	1.293
H	-5.097	-1.26	2.175
H	-5.097	-1.26	-2.175
H	-3.877	-2.2	-1.294
H	-5.572	-2.72	-1.284
H	-9.931	3.448	1.284
H	-11.625	2.929	1.294
H	-10.406	1.988	2.175
H	-9.931	3.449	-1.284
H	-10.406	1.988	-2.175
H	-11.625	2.929	-1.293
S	-14.061	0.971	0.0
C	-14.129	-1.648	-0.0
C	-14.979	-0.557	-0.0
C	3.893	1.117	0.0
C	3.198	2.383	0.0
C	3.062	0.003	0.0
N	3.776	3.587	-0.0
N	1.274	3.703	-0.0
S	2.574	4.706	-0.0
H	1.12	-0.877	0.0
H	3.506	-0.988	0.0
C	1.653	0.068	0.0
C	1.738	2.451	0.0
C	0.929	1.254	0.0
C	19.565	-2.157	-0.0
C	18.616	-3.165	-0.0
S	18.791	-0.55	0.0
C	11.216	-1.222	-0.0
C	11.3	0.196	0.0
C	12.539	0.854	0.0
C	13.689	0.078	0.0
C	13.605	-1.34	-0.0
C	12.366	-1.998	-0.0
C	15.152	0.545	0.0
C	15.871	-0.793	-0.0
C	14.965	-1.836	-0.0
C	9.753	-1.689	-0.0
C	9.034	-0.35	-0.0
C	9.94	0.692	0.0
C	7.702	0.122	0.0
C	7.609	1.519	0.0
S	9.197	2.275	0.0
C	17.203	-1.265	-0.0
C	17.297	-2.662	-0.0
S	15.708	-3.419	-0.0
C	9.423	-2.508	-1.268
C	9.423	-2.508	1.268
C	15.482	1.365	-1.268
C	15.482	1.364	1.268
H	12.314	-3.084	-0.0
H	12.591	1.94	0.0
H	18.887	-4.211	-0.0
H	6.016	3.067	0.0
H	14.908	2.298	-1.284
H	16.547	1.624	-1.293
H	15.245	0.8	-2.175
H	15.245	0.799	2.175
H	16.547	1.623	1.294
H	14.908	2.298	1.284
H	9.997	-3.441	-1.284
H	8.358	-2.767	-1.294
H	9.66	-1.943	-2.175
H	9.997	-3.442	1.284
H	9.659	-1.944	2.175
H	8.358	-2.768	1.293
S	6.114	-0.593	-0.0
C	6.288	2.021	0.0
C	5.341	1.014	0.0
C	23.978	-2.398	-0.0
C	23.168	-3.595	-0.0
C	23.253	-1.212	-0.0
N	23.632	-4.847	-0.0
N	21.13	-4.731	-0.0
S	22.332	-5.85	-0.0
H	21.4	-0.156	-0.0
H	23.787	-0.266	-0.0
C	21.844	-1.147	-0.0
C	21.708	-3.527	-0.0
C	21.013	-2.261	-0.0
C	39.885	-0.587	-0.0
C	39.033	0.505	0.0
S	38.966	-2.116	-0.0
C	31.485	-0.746	-0.0
C	31.438	-2.166	-0.0
C	32.611	-2.935	-0.0
C	33.827	-2.269	-0.0
C	33.875	-0.849	-0.0
C	32.702	-0.08	0.0
C	35.241	-2.869	-0.0
C	36.081	-1.603	-0.0
C	35.275	-0.481	0.0
C	30.072	-0.146	0.0
C	29.232	-1.412	-0.0
C	30.038	-2.534	-0.0
C	27.862	-1.76	-0.0
C	27.64	-3.141	-0.0
S	29.151	-4.041	-0.0
C	37.45	-1.256	-0.0
C	37.673	0.126	0.0
S	36.161	1.026	0.0
C	29.819	0.701	1.268
C	29.819	0.701	-1.268
C	35.494	-3.716	1.267
C	35.494	-3.716	-1.268
H	32.751	1.007	0.0
H	32.562	-4.022	-0.0
H	39.4	1.521	0.0
H	25.911	-4.536	-0.0
H	34.836	-4.592	1.284
H	36.53	-4.072	1.293
H	35.311	-3.132	2.174
H	35.311	-3.131	-2.175
H	36.53	-4.072	-1.294
H	34.836	-4.592	-1.284
H	30.477	1.577	1.284
H	28.782	1.057	1.293
H	30.002	0.116	2.175
H	30.477	1.577	-1.284
H	30.002	0.117	-2.175
H	28.782	1.057	-1.293
S	26.347	-0.9	0.0
C	26.279	-3.519	-0.0
C	25.429	-2.429	-0.0
C	44.301	-0.755	-0.0
C	43.605	0.511	-0.0
C	43.47	-1.869	0.0
N	44.183	1.716	-0.0
N	41.681	1.831	-0.0
S	42.982	2.834	-0.0
H	41.527	-2.749	0.0
H	43.914	-2.86	0.0
C	42.061	-1.803	0.0
C	42.146	0.579	-0.0
C	41.336	-0.618	0.0
C	59.973	-4.029	-0.0
C	59.024	-5.037	-0.0
S	59.199	-2.421	-0.0
C	51.624	-3.094	-0.0
C	51.708	-1.675	-0.0
C	52.947	-1.018	0.0
C	54.097	-1.793	-0.0
C	54.013	-3.212	-0.0
C	52.774	-3.87	-0.0
C	55.56	-1.327	0.0
C	56.279	-2.665	-0.0
C	55.372	-3.708	-0.0
C	50.161	-3.56	-0.0
C	49.441	-2.222	-0.0
C	50.348	-1.179	-0.0
C	48.11	-1.749	-0.0
C	48.016	-0.353	0.0
S	49.605	0.403	0.0
C	57.61	-3.137	-0.0
C	57.704	-4.534	-0.0
S	56.116	-5.291	-0.0
C	49.831	-4.38	-1.268
C	49.831	-4.38	1.267
C	55.89	-0.507	-1.268
C	55.89	-0.507	1.268
H	52.722	-4.956	-0.0
H	52.999	0.068	0.0
H	59.295	-6.083	-0.0
H	46.424	1.195	0.0
H	55.316	0.426	-1.284
H	56.955	-0.248	-1.293
H	55.653	-1.072	-2.175
H	55.653	-1.072	2.175
H	56.955	-0.248	1.293
H	55.316	0.426	1.284
H	50.405	-5.313	-1.285
H	48.766	-4.639	-1.294
H	50.067	-3.815	-2.175
H	50.405	-5.313	1.284
H	50.067	-3.815	2.174
H	48.766	-4.639	1.293
S	46.521	-2.465	-0.0
C	46.696	0.149	0.0
C	45.749	-0.858	-0.0
C	64.385	-4.27	-0.0
C	63.576	-5.466	-0.0
C	63.661	-3.084	-0.0
N	64.04	-6.719	-0.0
N	61.538	-6.603	-0.0
S	62.74	-7.722	-0.0
H	61.808	-2.028	-0.0
H	64.195	-2.138	-0.0
C	62.252	-3.019	-0.0
C	62.116	-5.399	-0.0
C	61.421	-4.132	-0.0
C	80.293	-2.458	-0.0
C	79.441	-1.367	-0.0
S	79.374	-3.987	-0.0
C	71.893	-2.617	-0.0
C	71.846	-4.038	-0.0
C	73.019	-4.807	-0.0
C	74.235	-4.141	-0.0
C	74.283	-2.721	-0.0
C	73.11	-1.951	-0.0
C	75.649	-4.741	-0.0
C	76.489	-3.475	-0.0
C	75.683	-2.353	-0.0
C	70.48	-2.018	-0.0
C	69.639	-3.284	-0.0
C	70.445	-4.406	-0.0
C	68.27	-3.631	-0.0
C	68.048	-5.013	-0.0
S	69.559	-5.913	-0.0
C	77.858	-3.128	-0.0
C	78.081	-1.746	-0.0
S	76.569	-0.846	0.0
C	70.226	-1.171	1.268
C	70.226	-1.171	-1.268
C	75.902	-5.588	1.267
C	75.902	-5.587	-1.268
H	73.159	-0.865	0.0
H	72.97	-5.893	-0.001
H	79.808	-0.35	0.0
H	66.319	-6.408	-0.001
H	75.244	-6.464	1.283
H	76.938	-5.944	1.293
H	75.718	-5.004	2.174
H	75.718	-5.003	-2.175
H	76.938	-5.944	-1.294
H	75.244	-6.464	-1.285
H	70.885	-0.295	1.284
H	69.19	-0.815	1.293
H	70.41	-1.756	2.175
H	70.885	-0.295	-1.284
H	70.41	-1.755	-2.175
H	69.19	-0.814	-1.293
S	66.754	-2.772	-0.0
C	66.687	-5.391	-0.0
C	65.836	-4.3	-0.0
C	84.709	-2.627	-0.0
C	84.013	-1.36	-0.0
C	83.878	-3.74	-0.0
N	84.591	-0.156	-0.0
N	82.089	-0.04	-0.0
S	83.389	0.963	-0.0
H	81.935	-4.621	0.0
H	84.322	-4.732	0.0
C	82.469	-3.675	-0.0
C	82.553	-1.293	-0.0
C	81.744	-2.489	-0.0
C	100.381	-5.901	-0.0
C	99.431	-6.908	-0.001
S	99.607	-4.293	-0.0
C	92.032	-4.966	-0.0
C	92.116	-3.547	-0.0
C	93.355	-2.889	-0.0
C	94.505	-3.665	-0.0
C	94.421	-5.084	-0.0
C	93.181	-5.741	-0.0
C	95.967	-3.198	-0.0
C	96.687	-4.537	-0.0
C	95.78	-5.58	-0.0
C	90.569	-5.432	-0.0
C	89.849	-4.094	-0.0
C	90.755	-3.051	-0.0
C	88.518	-3.621	-0.0
C	88.424	-2.225	-0.0
S	90.012	-1.468	0.0
C	98.018	-5.009	-0.0
C	98.112	-6.406	-0.0
S	96.524	-7.162	-0.001
C	90.238	-6.252	-1.268
C	90.238	-6.252	1.267
C	96.298	-2.379	-1.268
C	96.298	-2.379	1.268
H	93.13	-6.827	-0.001
H	93.406	-1.803	0.0
H	99.702	-7.955	-0.001
H	86.832	-0.676	0.0
H	95.724	-1.445	-1.284
H	97.363	-2.12	-1.293
H	96.061	-2.943	-2.175
H	96.061	-2.944	2.175
H	97.363	-2.12	1.293
H	95.724	-1.446	1.284
H	90.813	-7.185	-1.285
H	89.174	-6.511	-1.294
H	90.475	-5.687	-2.175
H	90.813	-7.185	1.283
H	90.475	-5.687	2.174
H	89.173	-6.511	1.293
S	86.929	-4.337	-0.0
C	87.104	-1.722	-0.0
C	86.156	-2.73	-0.0
C	104.793	-6.141	-0.0
C	103.984	-7.338	-0.0
C	104.068	-4.956	-0.0
N	104.448	-8.591	-0.0
N	101.946	-8.475	-0.0
S	103.148	-9.593	-0.0
H	102.216	-3.899	-0.001
H	104.602	-4.01	-0.001
C	102.66	-4.89	-0.0
C	102.524	-7.27	-0.0
C	101.829	-6.004	-0.0
C	120.701	-4.33	-0.0
C	119.849	-3.239	-0.0
S	119.781	-5.859	-0.0
C	112.301	-4.489	-0.0
C	112.253	-5.909	-0.0
C	113.426	-6.679	-0.001
C	114.643	-6.013	-0.0
C	114.691	-4.593	-0.0
C	113.518	-3.823	-0.0
C	116.056	-6.613	-0.001
C	116.897	-5.347	-0.0
C	116.09	-4.224	-0.0
C	110.887	-3.889	-0.0
C	110.047	-5.155	-0.0
C	110.853	-6.278	-0.0
C	108.678	-5.503	-0.0
C	108.455	-6.885	-0.0
S	109.967	-7.785	-0.001
C	118.266	-5.0	-0.0
C	118.489	-3.617	-0.0
S	116.977	-2.717	-0.0
C	110.634	-3.043	1.268
C	110.634	-3.043	-1.268
C	116.31	-7.459	1.267
C	116.31	-7.459	-1.268
H	113.566	-2.737	-0.0
H	113.377	-7.765	-0.001
H	120.215	-2.222	-0.0
H	106.727	-8.279	-0.001
H	115.652	-8.336	1.283
H	117.346	-7.816	1.293
H	116.126	-6.875	2.174
H	116.126	-6.875	-2.175
H	117.346	-7.815	-1.294
H	115.652	-8.335	-1.285
H	111.292	-2.167	1.284
H	109.598	-2.686	1.293
H	110.818	-3.627	2.175
H	111.292	-2.167	-1.284
H	110.818	-3.627	-2.175
H	109.598	-2.686	-1.293
S	107.162	-4.644	-0.0
C	107.094	-7.263	-0.001
C	106.244	-6.172	-0.0
C	125.117	-4.498	-0.0
C	124.421	-3.232	-0.0
C	124.285	-5.612	-0.0
N	124.999	-2.028	-0.0
N	122.497	-1.912	-0.0
S	123.797	-0.909	-0.0
H	122.343	-6.493	-0.0
H	124.729	-6.603	-0.0
C	122.877	-5.547	-0.0
C	122.961	-3.164	-0.0
C	122.152	-4.361	-0.0
C	140.789	-7.772	-0.0
C	139.839	-8.78	-0.001
S	140.015	-6.165	-0.0
C	132.439	-6.837	-0.0
C	132.523	-5.419	-0.0
C	133.762	-4.761	-0.0
C	134.912	-5.537	-0.0
C	134.828	-6.955	-0.0
C	133.589	-7.613	-0.001
C	136.375	-5.07	-0.0
C	137.095	-6.408	-0.0
C	136.188	-7.451	-0.0
C	130.976	-7.304	-0.001
C	130.257	-5.966	-0.0
C	131.163	-4.923	-0.0
C	128.925	-5.493	-0.0
C	128.832	-4.096	-0.0
S	130.42	-3.34	-0.0
C	138.426	-6.881	-0.0
C	138.52	-8.277	-0.001
S	136.932	-9.034	-0.001
C	130.646	-8.123	-1.268
C	130.646	-8.124	1.267
C	136.706	-4.25	-1.268
C	136.706	-4.251	1.268
H	133.537	-8.699	-0.001
H	133.814	-3.675	-0.0
H	140.11	-9.826	-0.001
H	127.24	-2.548	-0.0
H	136.131	-3.317	-1.284
H	137.77	-3.992	-1.293
H	136.469	-4.815	-2.175
H	136.469	-4.816	2.175
H	137.77	-3.992	1.293
H	136.131	-3.318	1.284
H	131.221	-9.056	-1.285
H	129.581	-8.382	-1.294
H	130.883	-7.558	-2.175
H	131.22	-9.057	1.283
H	130.883	-7.559	2.174
H	129.581	-8.383	1.293
S	127.337	-6.208	-0.0
C	127.512	-3.594	-0.0
C	126.564	-4.602	-0.0
C	145.201	-8.013	-0.001
C	144.391	-9.21	-0.0
C	144.476	-6.827	-0.001
N	144.855	-10.462	-0.0
N	142.353	-10.346	-0.0
S	143.555	-11.465	-0.0
H	142.624	-5.771	-0.001
H	145.01	-5.881	-0.001
C	143.068	-6.762	-0.001
C	142.931	-9.142	-0.0
C	142.236	-7.876	-0.001
C	161.109	-6.202	-0.0
C	160.256	-5.111	-0.0
S	160.189	-7.731	-0.001
C	152.709	-6.361	-0.0
C	152.661	-7.781	-0.001
C	153.834	-8.55	-0.001
C	155.051	-7.885	-0.001
C	155.098	-6.464	-0.0
C	153.925	-5.695	-0.0
C	156.464	-8.484	-0.001
C	157.304	-7.218	-0.0
C	156.498	-6.096	-0.0
C	151.295	-5.761	-0.0
C	150.455	-7.027	-0.0
C	151.261	-8.149	-0.001
C	149.085	-7.375	-0.0
C	148.863	-8.756	-0.001
S	150.375	-9.656	-0.001
C	158.674	-6.871	-0.0
C	158.896	-5.489	-0.0
S	157.385	-4.589	-0.0
C	151.042	-4.915	1.268
C	151.042	-4.914	-1.268
C	156.717	-9.331	1.267
C	156.717	-9.331	-1.269
H	153.974	-4.609	-0.0
H	153.785	-9.637	-0.001
H	160.623	-4.094	-0.0
H	147.135	-10.151	-0.001
H	156.059	-10.207	1.283
H	157.754	-9.687	1.292
H	156.534	-8.747	2.174
H	156.534	-8.746	-2.175
H	157.754	-9.687	-1.294
H	156.059	-10.207	-1.285
H	151.7	-4.039	1.284
H	150.006	-4.558	1.293
H	151.226	-5.499	2.174
H	151.7	-4.038	-1.284
H	151.226	-5.498	-2.175
H	150.006	-4.558	-1.293
S	147.57	-6.515	-0.0
C	147.502	-9.134	-0.001
C	146.652	-8.044	-0.001
C	165.524	-6.37	-0.0
C	164.829	-5.104	-0.0
C	164.693	-7.484	-0.0
N	165.407	-3.9	-0.001
N	162.905	-3.784	-0.001
S	164.205	-2.781	-0.001
H	162.751	-8.364	-0.0
H	165.137	-8.475	-0.0
C	163.285	-7.418	-0.0
C	163.369	-5.036	-0.0
C	162.56	-6.233	-0.0
C	181.196	-9.644	-0.001
C	180.247	-10.652	-0.001
S	180.422	-8.037	-0.0
C	172.847	-8.709	-0.001
C	172.931	-7.291	-0.0
C	174.17	-6.633	-0.0
C	175.32	-7.408	-0.0
C	175.236	-8.827	-0.001
C	173.997	-9.485	-0.001
C	176.783	-6.942	-0.0
C	177.503	-8.28	-0.0
C	176.596	-9.323	-0.001
C	171.384	-9.176	-0.001
C	170.665	-7.837	-0.0
C	171.571	-6.794	-0.0
C	169.333	-7.364	-0.0
C	169.24	-5.968	-0.0
S	170.828	-5.212	-0.0
C	178.834	-8.752	-0.001
C	178.928	-10.149	-0.001
S	177.339	-10.906	-0.001
C	171.054	-9.995	-1.269
C	171.054	-9.995	1.267
C	177.113	-6.122	-1.268
C	177.113	-6.122	1.268
H	173.945	-10.571	-0.001
H	174.222	-5.547	-0.0
H	180.518	-11.698	-0.001
H	167.647	-4.42	-0.0
H	176.539	-5.189	-1.284
H	178.178	-5.863	-1.293
H	176.877	-6.687	-2.175
H	176.877	-6.687	2.174
H	178.178	-5.864	1.293
H	176.539	-5.189	1.284
H	171.628	-10.928	-1.285
H	169.989	-10.254	-1.294
H	171.291	-9.43	-2.175
H	171.628	-10.928	1.283
H	171.291	-9.431	2.174
H	169.989	-10.255	1.292
S	167.745	-8.08	-0.001
C	167.919	-5.466	-0.0
C	166.972	-6.473	-0.0
C	185.609	-9.885	-0.001
C	184.799	-11.082	-0.001
C	184.884	-8.699	-0.001
N	185.263	-12.334	-0.0
N	182.761	-12.218	-0.0
S	183.963	-13.337	-0.0
H	183.031	-7.643	-0.001
H	185.418	-7.753	-0.001
C	183.475	-8.634	-0.001
C	183.339	-11.014	-0.001
C	182.644	-9.748	-0.001
H	-16.06	-0.623	-0.0
H	186.691	-9.91	-0.001
