612
IDTTBPD_10
C	0.107	1.812	0.054
C	1.0	2.797	0.427
S	0.966	0.297	-0.352
C	8.471	1.156	0.51
C	8.464	-0.199	0.085
C	7.267	-0.864	-0.218
C	6.08	-0.158	-0.09
C	6.086	1.197	0.335
C	7.284	1.862	0.638
C	4.649	-0.647	-0.356
C	3.86	0.609	-0.025
C	4.705	1.631	0.362
C	9.902	1.645	0.776
C	10.691	0.39	0.445
C	9.846	-0.632	0.057
C	12.043	-0.023	0.424
C	12.211	-1.352	0.016
S	10.671	-2.12	-0.347
C	2.507	1.019	0.002
C	2.339	2.35	0.402
S	3.88	3.119	0.763
C	10.092	2.059	2.253
C	10.281	2.815	-0.161
C	4.269	-1.817	0.579
C	4.46	-1.06	-1.834
H	7.276	2.9	0.963
H	7.275	-1.901	-0.543
H	0.686	3.796	0.687
H	13.873	-2.775	-0.34
H	4.889	-2.695	0.369
H	3.22	-2.102	0.434
H	4.407	-1.542	1.629
H	4.732	-0.243	-2.509
H	3.415	-1.331	-2.028
H	5.083	-1.928	-2.074
H	9.469	2.928	2.492
H	11.136	2.33	2.446
H	9.818	1.244	2.929
H	9.66	3.693	0.048
H	10.144	2.538	-1.211
H	11.329	3.102	-0.016
S	13.585	0.704	0.766
C	13.552	-1.792	-0.026
C	14.443	-0.81	0.358
C	-4.276	1.59	-0.171
C	-3.603	2.824	-0.283
C	-3.418	0.476	0.02
C	-4.156	4.202	-0.484
N	-3.057	5.061	-0.505
C	-1.851	4.388	-0.337
C	-3.15	6.5	-0.676
O	-0.775	4.96	-0.314
O	-5.306	4.582	-0.618
H	-1.474	-0.325	0.256
H	-3.854	-0.515	0.096
H	-2.588	6.814	-1.56
H	-2.741	7.014	0.199
H	-4.205	6.747	-0.795
C	-2.046	0.583	0.092
C	-2.195	2.936	-0.195
C	-1.355	1.818	-0.015
C	-19.429	-3.45	-1.408
C	-18.359	-4.282	-1.677
S	-18.862	-1.823	-0.926
C	-11.266	-1.503	-0.985
C	-11.527	-0.169	-0.573
C	-12.838	0.3	-0.404
C	-13.882	-0.58	-0.651
C	-13.621	-1.915	-1.062
C	-12.31	-2.383	-1.231
C	-15.391	-0.321	-0.541
C	-15.937	-1.681	-0.944
C	-14.908	-2.557	-1.231
C	-9.756	-1.763	-1.094
C	-9.211	-0.403	-0.691
C	-10.24	0.473	-0.403
C	-7.949	0.214	-0.531
C	-8.033	1.549	-0.119
S	-9.703	2.066	0.073
C	-17.199	-2.296	-1.11
C	-17.116	-3.633	-1.514
S	-15.445	-4.151	-1.704
C	-9.35	-2.13	-2.539
C	-9.302	-2.867	-0.113
C	-15.847	0.783	-1.521
C	-15.797	0.045	0.904
H	-12.123	-3.407	-1.546
H	-13.025	1.323	-0.089
H	-18.486	-5.316	-1.96
H	-6.658	3.21	0.399
H	-15.396	1.746	-1.254
H	-16.936	0.902	-1.49
H	-15.558	0.542	-2.549
H	-15.474	-0.725	1.611
H	-16.885	0.15	0.985
H	-15.344	0.998	1.202
H	-9.802	-3.083	-2.836
H	-8.262	-2.235	-2.619
H	-9.674	-1.361	-3.247
H	-9.755	-3.829	-0.379
H	-9.59	-2.624	0.915
H	-8.213	-2.987	-0.144
S	-6.286	-0.263	-0.703
C	-6.788	2.192	0.06
C	-5.72	1.362	-0.219
C	-23.792	-3.911	-1.649
C	-22.951	-5.027	-1.457
C	-23.101	-2.676	-1.758
C	-23.303	-6.476	-1.304
N	-22.093	-7.155	-1.159
C	-20.994	-6.301	-1.205
C	-21.979	-8.591	-0.987
O	-19.846	-6.7	-1.109
O	-24.388	-7.03	-1.288
H	-21.291	-1.582	-1.794
H	-23.676	-1.764	-1.887
H	-21.472	-8.822	-0.046
H	-21.405	-9.029	-1.81
H	-22.989	-9.0	-0.979
C	-21.729	-2.569	-1.684
C	-21.542	-4.919	-1.395
C	-20.871	-3.683	-1.494
C	-39.592	-1.278	-1.986
C	-38.699	-0.293	-1.612
S	-38.733	-2.793	-2.392
C	-31.228	-1.933	-1.529
C	-31.234	-3.288	-1.954
C	-32.432	-3.953	-2.257
C	-33.619	-3.247	-2.129
C	-33.613	-1.892	-1.704
C	-32.415	-1.227	-1.401
C	-35.05	-3.736	-2.396
C	-35.839	-2.48	-2.064
C	-34.994	-1.458	-1.678
C	-29.797	-1.444	-1.263
C	-29.008	-2.7	-1.595
C	-29.852	-3.721	-1.982
C	-27.656	-3.113	-1.615
C	-27.488	-4.441	-2.023
S	-29.028	-5.209	-2.386
C	-37.192	-2.07	-2.037
C	-37.36	-0.739	-1.637
S	-35.819	0.03	-1.276
C	-29.607	-1.03	0.213
C	-29.418	-0.275	-2.2
C	-35.43	-4.906	-1.46
C	-35.239	-4.149	-3.873
H	-32.423	-0.189	-1.077
H	-32.424	-4.991	-2.582
H	-39.013	0.707	-1.352
H	-25.826	-5.864	-2.379
H	-34.81	-5.785	-1.67
H	-36.478	-5.191	-1.606
H	-35.292	-4.631	-0.41
H	-34.966	-3.332	-4.548
H	-36.284	-4.42	-4.067
H	-34.615	-5.017	-4.113
H	-30.23	-0.161	0.453
H	-28.563	-0.759	0.407
H	-29.88	-1.846	0.889
H	-30.039	0.603	-1.991
H	-29.555	-0.551	-3.25
H	-28.37	0.012	-2.055
S	-26.114	-2.385	-1.273
C	-26.147	-4.882	-2.065
C	-25.256	-3.899	-1.681
C	-43.975	-1.499	-2.21
C	-43.302	-0.266	-2.322
C	-43.117	-2.614	-2.019
C	-43.855	1.113	-2.523
N	-42.756	1.972	-2.545
C	-41.55	1.298	-2.377
C	-42.849	3.41	-2.715
O	-40.474	1.871	-2.354
O	-45.005	1.493	-2.658
H	-41.173	-3.415	-1.783
H	-43.553	-3.604	-1.944
H	-42.287	3.724	-3.6
H	-42.44	3.925	-1.841
H	-43.904	3.658	-2.834
C	-41.744	-2.506	-1.947
C	-41.894	-0.154	-2.234
C	-41.054	-1.271	-2.055
C	-59.128	-6.539	-3.447
C	-58.058	-7.371	-3.716
S	-58.561	-4.913	-2.965
C	-50.965	-4.593	-3.024
C	-51.226	-3.258	-2.613
C	-52.537	-2.79	-2.443
C	-53.581	-3.669	-2.69
C	-53.32	-5.004	-3.101
C	-52.009	-5.473	-3.271
C	-55.09	-3.411	-2.58
C	-55.636	-4.77	-2.983
C	-54.607	-5.646	-3.27
C	-49.455	-4.852	-3.133
C	-48.91	-3.492	-2.731
C	-49.939	-2.617	-2.443
C	-47.648	-2.875	-2.571
C	-47.731	-1.54	-2.159
S	-49.402	-1.023	-1.967
C	-56.898	-5.385	-3.149
C	-56.815	-6.722	-3.554
S	-55.144	-7.241	-3.743
C	-49.049	-5.22	-4.578
C	-49.001	-5.956	-2.152
C	-55.546	-2.306	-3.56
C	-55.496	-3.044	-1.135
H	-51.822	-6.497	-3.585
H	-52.724	-1.766	-2.128
H	-58.184	-8.405	-3.999
H	-46.357	0.12	-1.641
H	-55.095	-1.344	-3.293
H	-56.635	-2.188	-3.529
H	-55.257	-2.547	-4.588
H	-55.173	-3.814	-0.428
H	-56.584	-2.939	-1.054
H	-55.043	-2.092	-0.837
H	-49.501	-6.173	-4.875
H	-47.961	-5.324	-4.658
H	-49.373	-4.45	-5.286
H	-49.454	-6.918	-2.418
H	-49.289	-5.713	-1.124
H	-47.912	-6.076	-2.183
S	-45.985	-3.352	-2.742
C	-46.487	-0.897	-1.979
C	-45.419	-1.727	-2.259
C	-63.491	-7.001	-3.688
C	-62.65	-8.116	-3.496
C	-62.8	-5.765	-3.797
C	-63.002	-9.565	-3.343
N	-61.791	-10.244	-3.199
C	-60.693	-9.39	-3.244
C	-61.678	-11.681	-3.027
O	-59.545	-9.789	-3.148
O	-64.086	-10.12	-3.327
H	-60.99	-4.671	-3.833
H	-63.375	-4.853	-3.926
H	-61.171	-11.911	-2.085
H	-61.104	-12.118	-3.849
H	-62.688	-12.09	-3.018
C	-61.428	-5.658	-3.723
C	-61.241	-8.008	-3.434
C	-60.57	-6.772	-3.533
C	-79.291	-4.367	-4.025
C	-78.398	-3.382	-3.651
S	-78.432	-5.882	-4.431
C	-70.927	-5.022	-3.568
C	-70.933	-6.378	-3.994
C	-72.131	-7.042	-4.296
C	-73.318	-6.337	-4.169
C	-73.312	-4.981	-3.743
C	-72.114	-4.317	-3.44
C	-74.749	-6.825	-4.435
C	-75.538	-5.57	-4.103
C	-74.693	-4.548	-3.717
C	-69.496	-4.533	-3.303
C	-68.707	-5.789	-3.634
C	-69.551	-6.811	-4.022
C	-67.355	-6.202	-3.655
C	-67.187	-7.53	-4.062
S	-68.727	-8.298	-4.425
C	-76.891	-5.159	-4.076
C	-77.059	-3.829	-3.676
S	-75.518	-3.06	-3.316
C	-69.306	-4.119	-1.826
C	-69.117	-3.364	-4.239
C	-75.129	-7.995	-3.499
C	-74.938	-7.238	-5.912
H	-72.122	-3.279	-3.116
H	-72.123	-8.08	-4.622
H	-78.712	-2.382	-3.392
H	-65.524	-8.953	-4.418
H	-74.509	-8.874	-3.71
H	-76.177	-8.28	-3.645
H	-74.991	-7.721	-2.449
H	-74.665	-6.421	-6.587
H	-75.982	-7.51	-6.106
H	-74.314	-8.106	-6.152
H	-69.929	-3.25	-1.586
H	-68.261	-3.848	-1.632
H	-69.579	-4.935	-1.15
H	-69.738	-2.486	-4.031
H	-69.254	-3.64	-5.289
H	-68.069	-3.077	-4.094
S	-65.813	-5.475	-3.313
C	-65.846	-7.971	-4.104
C	-64.954	-6.988	-3.72
C	-83.674	-4.589	-4.249
C	-83.001	-3.355	-4.361
C	-82.816	-5.703	-4.058
C	-83.554	-1.977	-4.563
N	-82.455	-1.117	-4.584
C	-81.249	-1.791	-4.416
C	-82.548	0.321	-4.755
O	-80.173	-1.219	-4.393
O	-84.704	-1.596	-4.697
H	-80.872	-6.504	-3.823
H	-83.252	-6.694	-3.983
H	-81.986	0.635	-5.639
H	-82.139	0.835	-3.88
H	-83.603	0.569	-4.873
C	-81.443	-5.596	-3.986
C	-81.593	-3.243	-4.273
C	-80.753	-4.36	-4.094
C	-98.827	-9.628	-5.486
C	-97.757	-10.46	-5.756
S	-98.26	-8.002	-5.004
C	-90.664	-7.682	-5.063
C	-90.925	-6.348	-4.652
C	-92.236	-5.879	-4.483
C	-93.28	-6.759	-4.729
C	-93.018	-8.093	-5.141
C	-91.707	-8.562	-5.31
C	-94.789	-6.5	-4.62
C	-95.335	-7.86	-5.022
C	-94.306	-8.735	-5.309
C	-89.154	-7.941	-5.172
C	-88.609	-6.581	-4.77
C	-89.638	-5.706	-4.482
C	-87.347	-5.964	-4.61
C	-87.43	-4.629	-4.198
S	-89.101	-4.112	-4.006
C	-96.597	-8.474	-5.188
C	-96.514	-9.812	-5.593
S	-94.843	-10.33	-5.783
C	-88.748	-8.309	-6.617
C	-88.7	-9.046	-4.191
C	-95.245	-5.395	-5.6
C	-95.195	-6.133	-3.174
H	-91.52	-9.586	-5.625
H	-92.423	-4.855	-4.167
H	-97.883	-11.494	-6.039
H	-86.056	-2.969	-3.68
H	-94.794	-4.433	-5.332
H	-96.334	-5.277	-5.568
H	-94.956	-5.637	-6.627
H	-94.872	-6.904	-2.467
H	-96.283	-6.029	-3.093
H	-94.742	-5.181	-2.876
H	-89.2	-9.262	-6.914
H	-87.66	-8.413	-6.697
H	-89.071	-7.54	-7.325
H	-89.152	-10.007	-4.457
H	-88.988	-8.803	-3.164
H	-87.611	-9.165	-4.223
S	-85.683	-6.441	-4.781
C	-86.186	-3.987	-4.018
C	-85.118	-4.816	-4.298
C	-103.19	-10.09	-5.728
C	-102.349	-11.205	-5.535
C	-102.499	-8.855	-5.836
C	-102.7	-12.654	-5.382
N	-101.49	-13.333	-5.238
C	-100.392	-12.48	-5.283
C	-101.377	-14.77	-5.066
O	-99.244	-12.878	-5.188
O	-103.785	-13.209	-5.367
H	-100.689	-7.761	-5.872
H	-103.073	-7.943	-5.966
H	-100.87	-15.0	-4.125
H	-100.803	-15.207	-5.888
H	-102.387	-15.179	-5.057
C	-101.127	-8.747	-5.762
C	-100.94	-11.097	-5.473
C	-100.268	-9.862	-5.572
C	-118.99	-7.456	-6.064
C	-118.097	-6.471	-5.691
S	-118.131	-8.971	-6.47
C	-110.626	-8.112	-5.607
C	-110.632	-9.467	-6.033
C	-111.83	-10.132	-6.336
C	-113.017	-9.426	-6.208
C	-113.01	-8.071	-5.782
C	-111.813	-7.406	-5.48
C	-114.448	-9.914	-6.474
C	-115.237	-8.659	-6.142
C	-114.392	-7.637	-5.756
C	-109.194	-7.623	-5.342
C	-108.406	-8.878	-5.673
C	-109.25	-9.9	-6.061
C	-107.054	-9.291	-5.694
C	-106.886	-10.62	-6.101
S	-108.426	-11.387	-6.464
C	-116.59	-8.249	-6.116
C	-116.757	-6.918	-5.716
S	-115.217	-6.149	-5.355
C	-109.005	-7.208	-3.865
C	-108.816	-6.453	-6.279
C	-114.828	-11.085	-5.539
C	-114.637	-10.328	-7.951
H	-111.821	-6.368	-5.155
H	-111.821	-11.169	-6.661
H	-118.411	-5.472	-5.431
H	-105.223	-12.043	-6.458
H	-114.208	-11.963	-5.749
H	-115.876	-11.37	-5.684
H	-114.69	-10.81	-4.488
H	-114.364	-9.511	-8.627
H	-115.681	-10.599	-8.146
H	-114.013	-11.196	-8.192
H	-109.628	-6.339	-3.625
H	-107.96	-6.938	-3.672
H	-109.278	-8.024	-3.189
H	-109.437	-5.575	-6.07
H	-108.953	-6.729	-7.329
H	-107.768	-6.166	-6.133
S	-105.512	-8.564	-5.352
C	-105.545	-11.06	-6.143
C	-104.653	-10.078	-5.759
C	-123.373	-7.678	-6.289
C	-122.699	-6.444	-6.401
C	-122.515	-8.792	-6.097
C	-123.253	-5.066	-6.602
N	-122.154	-4.207	-6.623
C	-120.948	-4.88	-6.455
C	-122.246	-2.768	-6.794
O	-119.871	-4.308	-6.432
O	-124.403	-4.686	-6.736
H	-120.571	-9.593	-5.862
H	-122.951	-9.783	-6.022
H	-121.685	-2.454	-7.678
H	-121.838	-2.254	-5.919
H	-123.302	-2.521	-6.913
C	-121.142	-8.685	-6.025
C	-121.292	-6.332	-6.312
C	-120.451	-7.45	-6.133
C	-138.525	-12.718	-7.526
C	-137.456	-13.549	-7.795
S	-137.959	-11.091	-7.044
C	-130.363	-10.771	-7.102
C	-130.624	-9.437	-6.691
C	-131.935	-8.968	-6.522
C	-132.979	-9.848	-6.768
C	-132.717	-11.183	-7.18
C	-131.406	-11.651	-7.349
C	-134.488	-9.589	-6.659
C	-135.034	-10.949	-7.062
C	-134.005	-11.825	-7.348
C	-128.853	-11.03	-7.211
C	-128.308	-9.671	-6.809
C	-129.336	-8.795	-6.521
C	-127.046	-9.054	-6.649
C	-127.129	-7.719	-6.237
S	-128.8	-7.202	-6.045
C	-136.296	-11.564	-7.228
C	-136.212	-12.901	-7.632
S	-134.542	-13.419	-7.822
C	-128.447	-11.398	-8.656
C	-128.399	-12.135	-6.23
C	-134.944	-8.484	-7.639
C	-134.894	-9.223	-5.213
H	-131.219	-12.675	-7.664
H	-132.122	-7.945	-6.206
H	-137.582	-14.583	-8.078
H	-125.755	-6.058	-5.719
H	-134.493	-7.522	-7.372
H	-136.033	-8.366	-7.607
H	-134.655	-8.726	-8.666
H	-134.57	-9.993	-4.506
H	-135.982	-9.118	-5.133
H	-134.441	-8.27	-4.916
H	-128.899	-12.351	-8.953
H	-127.359	-11.502	-8.736
H	-128.77	-10.629	-9.364
H	-128.851	-13.097	-6.496
H	-128.687	-11.892	-5.203
H	-127.31	-12.255	-6.262
S	-125.382	-9.53	-6.82
C	-125.885	-7.076	-6.057
C	-124.817	-7.906	-6.337
C	-142.888	-13.179	-7.767
C	-142.048	-14.295	-7.574
C	-142.198	-11.944	-7.876
C	-142.399	-15.743	-7.421
N	-141.189	-16.422	-7.277
C	-140.091	-15.569	-7.322
C	-141.075	-17.859	-7.105
O	-138.943	-15.967	-7.227
O	-143.484	-16.298	-7.406
H	-140.388	-10.85	-7.911
H	-142.772	-11.032	-8.005
H	-140.569	-18.09	-6.164
H	-140.502	-18.297	-7.928
H	-142.086	-18.268	-7.096
C	-140.826	-11.837	-7.801
C	-140.639	-14.187	-7.513
C	-139.967	-12.951	-7.611
C	-158.689	-10.546	-8.103
C	-157.796	-9.56	-7.73
S	-157.83	-12.06	-8.509
C	-150.325	-11.201	-7.647
C	-150.331	-12.556	-8.072
C	-151.528	-13.221	-8.375
C	-152.716	-12.515	-8.247
C	-152.709	-11.16	-7.822
C	-151.512	-10.495	-7.519
C	-154.147	-13.004	-8.513
C	-154.936	-11.748	-8.182
C	-154.091	-10.726	-7.795
C	-148.893	-10.712	-7.381
C	-148.104	-11.968	-7.712
C	-148.949	-12.989	-8.1
C	-146.753	-12.381	-7.733
C	-146.584	-13.709	-8.141
S	-148.125	-14.477	-8.504
C	-156.288	-11.338	-8.155
C	-156.456	-10.007	-7.755
S	-154.916	-9.238	-7.394
C	-148.704	-10.298	-5.904
C	-148.514	-9.543	-8.318
C	-154.527	-14.174	-7.578
C	-154.336	-13.417	-9.991
H	-151.52	-9.457	-7.194
H	-151.52	-14.258	-8.7
H	-158.11	-8.561	-7.47
H	-144.922	-15.132	-8.497
H	-153.907	-15.052	-7.788
H	-155.575	-14.459	-7.723
H	-154.389	-13.899	-6.528
H	-154.063	-12.6	-10.666
H	-155.38	-13.688	-10.185
H	-153.712	-14.285	-10.231
H	-149.327	-9.429	-5.665
H	-147.659	-10.027	-5.711
H	-148.977	-11.114	-5.228
H	-149.136	-8.665	-8.109
H	-148.652	-9.819	-9.368
H	-147.467	-9.256	-8.172
S	-145.211	-11.653	-7.391
C	-145.244	-14.15	-8.183
C	-144.352	-13.167	-7.799
C	-163.071	-10.767	-8.328
C	-162.398	-9.534	-8.44
C	-162.214	-11.882	-8.137
C	-162.952	-8.155	-8.641
N	-161.853	-7.296	-8.662
C	-160.647	-7.97	-8.494
C	-161.945	-5.858	-8.833
O	-159.57	-7.397	-8.471
O	-164.102	-7.775	-8.775
H	-160.27	-12.682	-7.901
H	-162.65	-12.872	-8.061
H	-161.384	-5.544	-9.717
H	-161.536	-5.343	-7.958
H	-163.001	-5.61	-8.952
C	-160.841	-11.774	-8.065
C	-160.991	-9.422	-8.352
C	-160.15	-10.539	-8.172
C	-178.224	-15.807	-9.565
C	-177.155	-16.639	-9.834
S	-177.658	-14.181	-9.083
C	-170.062	-13.861	-9.142
C	-170.323	-12.526	-8.73
C	-171.634	-12.057	-8.561
C	-172.678	-12.937	-8.808
C	-172.416	-14.272	-9.219
C	-171.105	-14.741	-9.388
C	-174.187	-12.679	-8.698
C	-174.732	-14.038	-9.101
C	-173.704	-14.914	-9.387
C	-168.552	-14.12	-9.251
C	-168.007	-12.76	-8.848
C	-169.035	-11.885	-8.56
C	-166.745	-12.143	-8.688
C	-166.828	-10.808	-8.276
S	-168.499	-10.291	-8.084
C	-175.995	-14.653	-9.267
C	-175.911	-15.99	-9.671
S	-174.241	-16.509	-9.861
C	-168.146	-14.488	-10.696
C	-168.098	-15.224	-8.27
C	-174.642	-11.574	-9.678
C	-174.593	-12.312	-7.253
H	-170.918	-15.764	-9.703
H	-171.821	-11.034	-8.246
H	-177.281	-17.673	-10.117
H	-165.453	-9.148	-7.758
H	-174.192	-10.611	-9.411
H	-175.732	-11.456	-9.646
H	-174.354	-11.815	-10.706
H	-174.269	-13.082	-6.546
H	-175.681	-12.207	-7.172
H	-174.14	-11.36	-6.955
H	-168.598	-15.44	-10.993
H	-167.057	-14.592	-10.775
H	-168.469	-13.718	-11.404
H	-168.55	-16.186	-8.536
H	-168.386	-14.981	-7.242
H	-167.008	-15.344	-8.301
S	-165.081	-12.62	-8.86
C	-165.584	-10.165	-8.097
C	-164.516	-10.995	-8.376
C	-182.587	-16.269	-9.806
C	-181.747	-17.384	-9.614
C	-181.897	-15.033	-9.915
C	-182.098	-18.833	-9.461
N	-180.888	-19.512	-9.316
C	-179.79	-18.658	-9.362
C	-180.774	-20.949	-9.144
O	-178.642	-19.057	-9.266
O	-183.183	-19.388	-9.445
H	-180.087	-13.939	-9.951
H	-182.471	-14.121	-10.044
H	-180.267	-21.179	-8.203
H	-180.201	-21.386	-9.967
H	-181.785	-21.358	-9.136
C	-180.525	-14.926	-9.841
C	-180.338	-17.276	-9.552
C	-179.666	-16.04	-9.651
H	15.517	-0.939	0.406
H	-183.665	-16.347	-9.866
