452
IGBTF_10
C	-0.285	-0.214	-0.196
C	-1.012	0.98	-0.038
C	-0.994	-1.413	-0.415
C	-2.374	-1.364	-0.479
C	-3.125	-0.167	-0.343
C	-2.404	1.012	-0.104
N	-3.233	-2.446	-0.661
C	-4.553	-2.039	-0.618
C	-4.546	-0.528	-0.423
O	-5.494	-2.807	-0.762
C	-2.83	-3.824	-0.846
C	-5.698	0.228	-0.386
C	-7.118	-0.14	-0.3
C	-7.872	1.062	-0.347
N	-7.019	2.154	-0.478
C	-5.697	1.748	-0.484
C	-7.831	-1.332	-0.113
O	-4.76	2.526	-0.594
C	-7.426	3.54	-0.566
H	-2.926	1.948	0.016
H	-0.467	-2.353	-0.518
H	-0.483	1.906	0.148
H	-9.783	2.046	-0.297
H	-7.305	-2.272	-0.053
H	-9.746	-2.239	0.156
H	-2.223	-3.933	-1.752
H	-2.251	-4.178	0.014
H	-3.739	-4.418	-0.945
H	-7.99	3.837	0.326
H	-8.049	3.706	-1.452
H	-6.519	4.141	-0.642
C	-9.221	-1.305	-0.017
C	-9.253	1.105	-0.256
C	-9.954	-0.107	-0.099
C	4.161	-0.163	-0.03
C	3.413	-1.262	0.529
C	3.397	0.831	-0.605
N	3.935	-2.321	1.154
N	1.425	-2.363	1.065
S	2.678	-3.263	1.629
F	1.407	1.84	-1.266
H	3.867	1.679	-1.09
C	1.982	0.791	-0.64
C	1.953	-1.284	0.477
C	1.193	-0.219	-0.128
C	15.267	0.395	0.739
C	14.597	-0.826	0.535
C	14.501	1.566	0.91
C	13.121	1.465	0.882
C	12.427	0.241	0.699
C	13.206	-0.91	0.509
N	12.213	2.513	1.005
C	10.915	2.057	0.876
C	10.991	0.548	0.684
O	9.937	2.789	0.957
C	12.55	3.905	1.215
C	9.874	-0.252	0.571
C	8.45	0.063	0.391
C	7.74	-1.166	0.39
N	8.623	-2.225	0.578
C	9.926	-1.77	0.671
C	7.706	1.228	0.156
O	10.882	-2.513	0.844
C	8.263	-3.626	0.641
H	12.729	-1.865	0.356
H	14.983	2.525	1.046
H	15.172	-1.731	0.385
H	5.874	-2.222	0.215
H	8.199	2.187	0.13
H	5.78	2.063	-0.24
H	13.091	4.036	2.159
H	13.171	4.282	0.395
H	11.615	4.465	1.253
H	7.771	-3.943	-0.286
H	7.589	-3.817	1.484
H	9.185	-4.193	0.778
C	6.327	1.149	-0.032
C	6.371	-1.261	0.208
C	5.636	-0.077	0.003
C	19.713	0.512	0.868
C	18.962	1.582	0.26
C	18.951	-0.512	1.392
N	19.484	2.661	-0.331
N	16.975	2.608	-0.408
S	18.227	3.555	-0.89
F	16.96	-1.595	1.921
H	19.419	-1.342	1.908
C	17.535	-0.525	1.334
C	17.503	1.549	0.215
C	16.744	0.456	0.77
C	30.857	0.425	0.841
C	30.13	1.62	0.998
C	30.148	-0.773	0.621
C	28.768	-0.724	0.557
C	28.017	0.473	0.693
C	28.738	1.651	0.932
N	27.909	-1.806	0.376
C	26.589	-1.4	0.418
C	26.596	0.112	0.613
O	25.648	-2.167	0.274
C	28.312	-3.184	0.19
C	25.444	0.868	0.65
C	24.024	0.5	0.736
C	23.27	1.702	0.69
N	24.123	2.793	0.559
C	25.445	2.388	0.552
C	23.311	-0.693	0.923
O	26.382	3.166	0.442
C	23.716	4.18	0.47
H	28.216	2.588	1.052
H	30.675	-1.713	0.518
H	30.659	2.546	1.185
H	21.359	2.686	0.739
H	23.837	-1.632	0.983
H	21.396	-1.6	1.192
H	28.919	-3.293	-0.716
H	28.891	-3.539	1.05
H	27.403	-3.778	0.092
H	23.152	4.477	1.362
H	23.093	4.346	-0.416
H	24.623	4.781	0.394
C	21.921	-0.665	1.02
C	21.889	1.744	0.78
C	21.188	0.533	0.938
C	35.303	0.477	1.006
C	34.555	-0.622	1.565
C	34.539	1.471	0.431
N	35.077	-1.681	2.19
N	32.567	-1.723	2.101
S	33.82	-2.623	2.666
F	32.549	2.479	-0.229
H	35.009	2.319	-0.054
C	33.124	1.431	0.396
C	33.095	-0.644	1.513
C	32.335	0.421	0.908
C	46.409	1.035	1.775
C	45.739	-0.186	1.572
C	45.643	2.206	1.946
C	44.263	2.105	1.919
C	43.569	0.881	1.735
C	44.348	-0.27	1.546
N	43.355	3.153	2.042
C	42.057	2.697	1.913
C	42.133	1.187	1.72
O	41.079	3.429	1.993
C	43.692	4.545	2.251
C	41.016	0.388	1.608
C	39.592	0.703	1.428
C	38.882	-0.527	1.426
N	39.765	-1.585	1.614
C	41.068	-1.13	1.708
C	38.848	1.868	1.193
O	42.024	-1.873	1.88
C	39.405	-2.986	1.677
H	43.871	-1.225	1.392
H	46.125	3.164	2.082
H	46.314	-1.091	1.422
H	37.016	-1.582	1.251
H	39.341	2.827	1.166
H	36.922	2.703	0.796
H	44.233	4.676	3.196
H	44.313	4.922	1.431
H	42.757	5.105	2.289
H	38.913	-3.303	0.75
H	38.731	-3.177	2.52
H	40.327	-3.553	1.814
C	37.469	1.788	1.004
C	37.513	-0.621	1.244
C	36.778	0.563	1.039
C	50.855	1.151	1.904
C	50.104	2.221	1.296
C	50.093	0.128	2.429
N	50.626	3.301	0.705
N	48.117	3.248	0.628
S	49.369	4.195	0.146
F	48.102	-0.955	2.958
H	50.561	-0.702	2.945
C	48.677	0.114	2.37
C	48.645	2.189	1.251
C	47.886	1.095	1.806
C	61.999	1.065	1.877
C	61.272	2.26	2.034
C	61.29	-0.133	1.657
C	59.91	-0.085	1.594
C	59.159	1.112	1.729
C	59.88	2.291	1.968
N	59.051	-1.166	1.412
C	57.731	-0.76	1.454
C	57.738	0.752	1.65
O	56.79	-1.527	1.31
C	59.454	-2.544	1.227
C	56.586	1.508	1.687
C	55.166	1.14	1.773
C	54.412	2.342	1.726
N	55.265	3.433	1.595
C	56.587	3.028	1.589
C	54.453	-0.053	1.959
O	57.524	3.806	1.479
C	54.858	4.82	1.507
H	59.358	3.227	2.088
H	61.817	-1.073	1.555
H	61.801	3.186	2.221
H	52.501	3.326	1.775
H	54.979	-0.992	2.02
H	52.538	-0.96	2.229
H	60.061	-2.653	0.32
H	60.033	-2.899	2.087
H	58.545	-3.139	1.128
H	54.294	5.117	2.399
H	54.234	4.986	0.621
H	55.765	5.421	1.43
C	53.063	-0.025	2.056
C	53.031	2.384	1.816
C	52.33	1.173	1.974
C	66.445	1.116	2.042
C	65.697	0.018	2.601
C	65.681	2.111	1.468
N	66.219	-1.041	3.226
N	63.709	-1.083	3.138
S	64.962	-1.984	3.702
F	63.691	3.119	0.807
H	66.151	2.959	0.983
C	64.266	2.071	1.432
C	64.237	-0.004	2.549
C	63.477	1.06	1.944
C	77.551	1.675	2.812
C	76.881	0.454	2.608
C	76.785	2.846	2.982
C	75.405	2.745	2.955
C	74.711	1.52	2.771
C	75.49	0.37	2.582
N	74.497	3.793	3.078
C	73.199	3.337	2.949
C	73.275	1.827	2.756
O	72.221	4.069	3.029
C	74.834	5.185	3.288
C	72.158	1.028	2.644
C	70.734	1.343	2.464
C	70.024	0.113	2.462
N	70.907	-0.946	2.651
C	72.21	-0.49	2.744
C	69.99	2.508	2.229
O	73.166	-1.233	2.917
C	70.547	-2.346	2.713
H	75.013	-0.585	2.429
H	77.267	3.804	3.119
H	77.456	-0.452	2.458
H	68.158	-0.942	2.288
H	70.483	3.467	2.203
H	68.064	3.342	1.833
H	75.375	5.316	4.232
H	75.455	5.562	2.467
H	73.899	5.745	3.325
H	70.055	-2.663	1.787
H	69.873	-2.537	3.557
H	71.469	-2.913	2.85
C	68.611	2.428	2.041
C	68.655	0.019	2.281
C	67.92	1.203	2.076
C	81.997	1.791	2.941
C	81.246	2.861	2.332
C	81.235	0.768	3.465
N	81.768	3.941	1.742
N	79.259	3.887	1.664
S	80.511	4.835	1.183
F	79.244	-0.315	3.994
H	81.703	-0.063	3.981
C	79.819	0.754	3.407
C	79.787	2.829	2.287
C	79.028	1.735	2.842
C	93.141	1.705	2.913
C	92.414	2.9	3.071
C	92.432	0.506	2.694
C	91.052	0.555	2.63
C	90.301	1.752	2.765
C	91.022	2.931	3.005
N	90.193	-0.526	2.448
C	88.873	-0.12	2.491
C	88.88	1.392	2.686
O	87.931	-0.888	2.347
C	90.596	-1.904	2.263
C	87.728	2.148	2.723
C	86.308	1.78	2.809
C	85.554	2.981	2.762
N	86.407	4.073	2.631
C	87.729	3.668	2.625
C	85.595	0.587	2.996
O	88.666	4.446	2.515
C	86.0	5.459	2.543
H	90.5	3.867	3.125
H	92.959	-0.433	2.591
H	92.943	3.826	3.257
H	83.643	3.966	2.812
H	86.121	-0.352	3.056
H	83.68	-0.32	3.265
H	91.203	-2.013	1.357
H	91.175	-2.259	3.123
H	89.687	-2.499	2.164
H	85.436	5.757	3.435
H	85.376	5.626	1.657
H	86.907	6.061	2.467
C	84.205	0.614	3.092
C	84.173	3.024	2.853
C	83.472	1.813	3.01
C	97.587	1.756	3.079
C	96.839	0.658	3.638
C	96.823	2.751	2.504
N	97.361	-0.402	4.263
N	94.851	-0.443	4.174
S	96.104	-1.344	4.738
F	94.833	3.759	1.843
H	97.293	3.599	2.019
C	95.408	2.711	2.469
C	95.379	0.636	3.586
C	94.619	1.7	2.98
C	108.693	2.315	3.848
C	108.023	1.094	3.644
C	107.927	3.485	4.019
C	106.547	3.384	3.991
C	105.853	2.16	3.808
C	106.632	1.01	3.618
N	105.639	4.433	4.114
C	104.341	3.977	3.985
C	104.417	2.467	3.792
O	103.363	4.709	4.066
C	105.976	5.825	4.324
C	103.3	1.668	3.68
C	101.876	1.983	3.5
C	101.166	0.753	3.499
N	102.049	-0.306	3.687
C	103.352	0.149	3.78
C	101.132	3.148	3.265
O	104.308	-0.593	3.953
C	101.689	-1.707	3.75
H	106.155	0.055	3.465
H	108.409	4.444	4.155
H	108.598	0.188	3.494
H	99.3	-0.302	3.324
H	101.625	4.106	3.239
H	99.206	3.982	2.869
H	106.517	5.955	5.268
H	106.597	6.202	3.504
H	105.041	6.384	4.362
H	101.197	-2.024	2.823
H	101.015	-1.897	4.593
H	102.611	-2.273	3.887
C	99.753	3.068	3.077
C	99.797	0.659	3.317
C	99.062	1.843	3.112
C	113.139	2.431	3.977
C	112.388	3.501	3.369
C	112.377	1.408	4.501
N	112.91	4.58	2.778
N	110.401	4.527	2.701
S	111.653	5.475	2.219
F	110.386	0.324	5.03
H	112.845	0.577	5.017
C	110.961	1.394	4.443
C	110.929	3.468	3.324
C	110.17	2.375	3.879
C	124.283	2.345	3.95
C	123.556	3.54	4.107
C	123.574	1.146	3.73
C	122.194	1.195	3.666
C	121.443	2.392	3.802
C	122.164	3.571	4.041
N	121.335	0.113	3.485
C	120.015	0.52	3.527
C	120.022	2.031	3.722
O	119.073	-0.248	3.383
C	121.738	-1.264	3.299
C	118.87	2.788	3.759
C	117.45	2.419	3.845
C	116.696	3.621	3.799
N	117.549	4.713	3.668
C	118.871	4.307	3.661
C	116.737	1.227	4.032
O	119.808	5.086	3.551
C	117.142	6.099	3.579
H	121.642	4.507	4.161
H	124.101	0.207	3.627
H	124.085	4.466	4.294
H	114.785	4.606	3.848
H	117.263	0.287	4.092
H	114.822	0.32	4.301
H	122.345	-1.374	2.393
H	122.317	-1.619	4.159
H	120.829	-1.859	3.201
H	116.578	6.396	4.471
H	116.518	6.266	2.693
H	118.049	6.7	3.503
C	115.347	1.254	4.129
C	115.315	3.664	3.889
C	114.614	2.453	4.047
C	128.729	2.396	4.115
C	127.981	1.298	4.674
C	127.965	3.39	3.54
N	128.503	0.238	5.299
N	125.993	0.197	5.21
S	127.246	-0.704	5.775
F	125.975	4.399	2.879
H	128.435	4.239	3.055
C	126.55	3.351	3.505
C	126.521	1.275	4.622
C	125.761	2.34	4.017
C	139.835	2.954	4.884
C	139.165	1.734	4.681
C	139.069	4.125	5.055
C	137.689	4.024	5.027
C	136.995	2.8	4.844
C	137.774	1.65	4.655
N	136.781	5.073	5.15
C	135.483	4.617	5.022
C	135.559	3.107	4.829
O	134.505	5.348	5.102
C	137.118	6.464	5.36
C	134.442	2.308	4.717
C	133.018	2.622	4.536
C	132.308	1.393	4.535
N	133.191	0.334	4.723
C	134.494	0.789	4.817
C	132.274	3.788	4.302
O	135.45	0.046	4.989
C	132.831	-1.067	4.786
H	137.297	0.695	4.501
H	139.551	5.084	5.191
H	139.74	0.828	4.531
H	130.442	0.337	4.36
H	132.767	4.746	4.275
H	130.348	4.622	3.905
H	137.659	6.595	6.305
H	137.739	6.842	4.54
H	136.183	7.024	5.398
H	132.339	-1.384	3.859
H	132.157	-1.258	5.629
H	133.753	-1.633	4.923
C	130.895	3.708	4.113
C	130.939	1.299	4.353
C	130.204	2.483	4.148
C	144.281	3.071	5.013
C	143.53	4.141	4.405
C	143.519	2.048	5.538
N	144.052	5.22	3.814
N	141.543	5.167	3.737
S	142.795	6.115	3.255
F	141.528	0.964	6.067
H	143.987	1.217	6.054
C	142.103	2.034	5.479
C	142.071	4.108	4.36
C	141.312	3.015	4.915
H	-11.035	-0.116	-0.042
H	145.363	3.071	5.056
