452
IGBTFF_10
C	0.174	0.233	0.2
C	0.904	-0.943	0.45
C	0.877	1.435	-0.018
C	2.26	1.41	0.028
C	3.015	0.239	0.3
C	2.297	-0.948	0.505
N	3.114	2.486	-0.198
C	4.436	2.09	-0.121
C	4.436	0.605	0.219
O	5.374	2.861	-0.267
C	2.706	3.847	-0.474
C	5.591	-0.12	0.415
C	7.006	0.19	0.166
C	7.767	-0.929	0.593
N	6.925	-1.908	1.113
C	5.603	-1.515	1.028
C	7.707	1.248	-0.429
O	4.674	-2.201	1.432
C	7.344	-3.182	1.658
H	2.823	-1.864	0.725
H	0.346	2.357	-0.214
H	0.378	-1.873	0.625
H	9.68	-1.886	0.808
H	7.176	2.119	-0.778
H	9.609	2.018	-1.02
H	2.096	4.242	0.345
H	2.129	3.901	-1.405
H	3.613	4.444	-0.575
H	7.878	-3.77	0.903
H	7.998	-3.038	2.525
H	6.444	-3.715	1.967
C	9.094	1.186	-0.556
C	9.144	-1.007	0.475
C	9.832	0.076	-0.107
C	-4.285	0.111	0.065
C	-3.58	1.233	0.635
C	-3.455	-0.875	-0.42
N	-4.162	2.3	1.189
N	-1.653	2.388	1.271
S	-2.957	3.281	1.721
F	-1.418	-1.881	-0.931
F	-3.954	-1.971	-1.014
C	-2.029	-0.825	-0.373
C	-2.122	1.284	0.682
C	-1.304	0.216	0.163
C	-15.342	-0.808	-0.934
C	-14.681	0.417	-1.138
C	-14.573	-1.958	-0.667
C	-13.195	-1.837	-0.622
C	-12.508	-0.615	-0.848
C	-13.292	0.519	-1.102
N	-12.284	-2.851	-0.339
C	-10.991	-2.363	-0.33
C	-11.073	-0.88	-0.672
O	-10.013	-3.066	-0.121
C	-12.613	-4.237	-0.086
C	-9.961	-0.076	-0.794
C	-8.547	-0.287	-0.452
C	-7.84	0.884	-0.831
N	-8.712	1.802	-1.407
C	-10.007	1.318	-1.408
C	-7.814	-1.294	0.191
O	-10.953	1.938	-1.874
C	-8.35	3.104	-1.926
H	-12.819	1.47	-1.289
H	-15.05	-2.915	-0.504
H	-15.259	1.308	-1.349
H	-5.989	1.973	-0.922
H	-8.305	-2.201	0.506
H	-5.905	-1.93	0.907
H	-13.139	-4.673	-0.943
H	-13.244	-4.333	0.805
H	-11.675	-4.77	0.075
H	-7.908	3.727	-1.139
H	-7.631	3.009	-2.749
H	-9.263	3.573	-2.295
C	-6.446	-1.135	0.407
C	-6.483	1.058	-0.622
C	-5.76	0.025	0.006
C	-19.798	-0.999	-1.091
C	-18.98	-2.068	-1.611
C	-19.073	0.041	-0.556
N	-19.449	-3.171	-2.199
N	-16.94	-3.083	-2.117
S	-18.146	-4.064	-2.649
F	-17.149	1.187	0.086
F	-19.685	1.098	0.002
C	-17.647	0.091	-0.509
C	-17.522	-2.017	-1.563
C	-16.818	-0.895	-0.993
C	-30.934	-0.859	-0.821
C	-30.204	-2.035	-0.571
C	-30.231	0.343	-1.039
C	-28.849	0.318	-0.994
C	-28.094	-0.853	-0.721
C	-28.811	-2.04	-0.516
N	-27.995	1.394	-1.219
C	-26.673	0.998	-1.142
C	-26.672	-0.488	-0.802
O	-25.734	1.768	-1.288
C	-28.402	2.755	-1.496
C	-25.518	-1.212	-0.606
C	-24.102	-0.902	-0.855
C	-23.341	-2.021	-0.428
N	-24.183	-3.0	0.092
C	-25.506	-2.607	0.007
C	-23.401	0.156	-1.451
O	-26.434	-3.293	0.411
C	-23.765	-4.274	0.636
H	-28.286	-2.956	-0.296
H	-30.763	1.264	-1.236
H	-30.731	-2.965	-0.396
H	-21.429	-2.978	-0.213
H	-23.933	1.027	-1.8
H	-21.499	0.926	-2.042
H	-29.013	3.15	-0.676
H	-28.979	2.808	-2.427
H	-27.495	3.352	-1.596
H	-23.231	-4.862	-0.118
H	-23.111	-4.13	1.504
H	-24.665	-4.807	0.945
C	-22.014	0.094	-1.577
C	-21.965	-2.099	-0.547
C	-21.277	-1.016	-1.129
C	-35.394	-0.981	-0.957
C	-34.688	0.141	-0.387
C	-34.564	-1.967	-1.441
N	-35.271	1.207	0.167
N	-32.762	1.296	0.249
S	-34.066	2.189	0.699
F	-32.526	-2.973	-1.952
F	-35.062	-3.063	-2.035
C	-33.138	-1.917	-1.394
C	-33.23	0.192	-0.339
C	-32.413	-0.876	-0.859
C	-46.451	-1.9	-1.955
C	-45.79	-0.675	-2.159
C	-45.681	-3.05	-1.689
C	-44.304	-2.929	-1.644
C	-43.616	-1.707	-1.869
C	-44.4	-0.573	-2.123
N	-43.393	-3.943	-1.36
C	-42.1	-3.455	-1.352
C	-42.181	-1.972	-1.694
O	-41.121	-4.158	-1.142
C	-43.721	-5.329	-1.108
C	-41.07	-1.168	-1.816
C	-39.656	-1.379	-1.474
C	-38.948	-0.208	-1.852
N	-39.821	0.71	-2.429
C	-41.116	0.226	-2.43
C	-38.923	-2.386	-0.831
O	-42.061	0.846	-2.895
C	-39.458	2.012	-2.948
H	-43.927	0.378	-2.31
H	-46.158	-4.007	-1.526
H	-46.368	0.216	-2.371
H	-37.097	0.881	-1.943
H	-39.414	-3.293	-0.516
H	-37.014	-3.022	-0.115
H	-44.248	-5.765	-1.964
H	-44.353	-5.425	-0.216
H	-42.783	-5.862	-0.947
H	-39.017	2.635	-2.161
H	-38.74	1.917	-3.77
H	-40.371	2.481	-3.316
C	-37.555	-2.227	-0.614
C	-37.591	-0.034	-1.644
C	-36.869	-1.067	-1.016
C	-50.907	-2.091	-2.112
C	-50.089	-3.16	-2.632
C	-50.182	-1.051	-1.577
N	-50.558	-4.263	-3.221
N	-48.049	-4.175	-3.138
S	-49.254	-5.156	-3.671
F	-48.258	0.095	-0.936
F	-50.794	0.006	-1.02
C	-48.756	-1.001	-1.53
C	-48.631	-3.109	-2.584
C	-47.926	-1.987	-2.014
C	-62.043	-1.951	-1.842
C	-61.313	-3.127	-1.593
C	-61.34	-0.749	-2.061
C	-59.958	-0.774	-2.015
C	-59.203	-1.945	-1.742
C	-59.92	-3.132	-1.538
N	-59.103	0.302	-2.241
C	-57.781	-0.094	-2.163
C	-57.781	-1.58	-1.824
O	-56.843	0.676	-2.31
C	-59.511	1.663	-2.517
C	-56.626	-2.304	-1.628
C	-55.211	-1.994	-1.877
C	-54.45	-3.113	-1.45
N	-55.292	-4.092	-0.93
C	-56.615	-3.699	-1.015
C	-54.51	-0.936	-2.472
O	-57.543	-4.386	-0.61
C	-54.874	-5.366	-0.385
H	-59.395	-4.048	-1.318
H	-61.871	0.172	-2.257
H	-61.84	-4.057	-1.418
H	-52.537	-4.07	-1.235
H	-55.042	-0.065	-2.821
H	-52.608	-0.166	-3.063
H	-60.122	2.058	-1.698
H	-60.088	1.716	-3.448
H	-58.604	2.26	-2.618
H	-54.339	-5.955	-1.14
H	-54.219	-5.222	0.483
H	-55.774	-5.899	-0.076
C	-53.123	-0.998	-2.598
C	-53.073	-3.191	-1.568
C	-52.385	-2.109	-2.15
C	-66.502	-2.073	-1.978
C	-65.797	-0.951	-1.408
C	-65.673	-3.059	-2.463
N	-66.379	0.115	-0.854
N	-63.871	0.204	-0.772
S	-65.174	1.097	-0.322
F	-63.635	-4.065	-2.974
F	-66.171	-4.155	-3.057
C	-64.247	-3.009	-2.416
C	-64.339	-0.9	-1.36
C	-63.522	-1.968	-1.88
C	-77.56	-2.992	-2.977
C	-76.899	-1.767	-3.181
C	-76.79	-4.142	-2.71
C	-75.412	-4.021	-2.665
C	-74.725	-2.799	-2.89
C	-75.509	-1.665	-3.144
N	-74.502	-5.035	-2.382
C	-73.208	-4.547	-2.373
C	-73.29	-3.064	-2.715
O	-72.23	-5.25	-2.164
C	-74.83	-6.421	-2.129
C	-72.178	-2.26	-2.837
C	-70.764	-2.471	-2.495
C	-70.057	-1.3	-2.874
N	-70.93	-0.382	-3.45
C	-72.224	-0.866	-3.451
C	-70.031	-3.478	-1.852
O	-73.17	-0.246	-3.917
C	-70.567	0.92	-3.969
H	-75.036	-0.714	-3.331
H	-77.267	-5.099	-2.547
H	-77.477	-0.876	-3.392
H	-68.206	-0.211	-2.965
H	-70.522	-4.385	-1.537
H	-68.123	-4.114	-1.136
H	-75.357	-6.857	-2.986
H	-75.461	-6.517	-1.238
H	-73.892	-6.954	-1.968
H	-70.126	1.543	-3.182
H	-69.849	0.825	-4.792
H	-71.48	1.389	-4.338
C	-68.663	-3.319	-1.636
C	-68.7	-1.126	-2.665
C	-67.978	-2.159	-2.037
C	-82.015	-3.183	-3.134
C	-81.198	-4.252	-3.654
C	-81.291	-2.143	-2.599
N	-81.666	-5.355	-4.242
N	-79.157	-5.267	-4.16
S	-80.363	-6.248	-4.692
F	-79.366	-0.997	-1.957
F	-81.902	-1.086	-2.041
C	-79.865	-2.093	-2.552
C	-79.74	-4.201	-3.606
C	-79.035	-3.079	-3.036
C	-93.152	-3.043	-2.864
C	-92.421	-4.219	-2.614
C	-92.449	-1.841	-3.082
C	-91.066	-1.866	-3.037
C	-90.311	-3.037	-2.764
C	-91.028	-4.224	-2.559
N	-90.212	-0.79	-3.262
C	-88.89	-1.186	-3.185
C	-88.89	-2.672	-2.845
O	-87.951	-0.416	-3.331
C	-90.619	0.571	-3.539
C	-87.735	-3.397	-2.649
C	-86.32	-3.086	-2.898
C	-85.558	-4.205	-2.471
N	-86.4	-5.184	-1.951
C	-87.723	-4.791	-2.036
C	-85.618	-2.028	-3.494
O	-88.651	-5.478	-1.632
C	-85.982	-6.458	-1.407
H	-90.503	-5.14	-2.339
H	-92.98	-0.92	-3.278
H	-92.948	-5.149	-2.439
H	-83.646	-5.162	-2.256
H	-86.15	-1.157	-3.842
H	-83.716	-1.258	-4.085
H	-91.23	0.966	-2.719
H	-91.196	0.624	-4.47
H	-89.712	1.168	-3.639
H	-85.448	-7.047	-2.161
H	-85.328	-6.314	-0.539
H	-86.882	-6.991	-1.098
C	-84.231	-2.09	-3.62
C	-84.182	-4.283	-2.59
C	-83.494	-3.201	-3.172
C	-97.611	-3.165	-3.0
C	-96.906	-2.043	-2.43
C	-96.781	-4.151	-3.484
N	-97.488	-0.977	-1.876
N	-94.979	-0.888	-1.794
S	-96.283	0.005	-1.344
F	-94.743	-5.157	-3.995
F	-97.28	-5.247	-4.078
C	-95.355	-4.101	-3.437
C	-95.448	-1.992	-2.382
C	-94.63	-3.06	-2.902
C	-108.668	-4.084	-3.998
C	-108.007	-2.859	-4.202
C	-107.898	-5.234	-3.732
C	-106.521	-5.113	-3.687
C	-105.834	-3.891	-3.912
C	-106.617	-2.757	-4.166
N	-105.61	-6.127	-3.403
C	-104.317	-5.639	-3.394
C	-104.399	-4.156	-3.737
O	-103.338	-6.342	-3.185
C	-105.939	-7.514	-3.151
C	-103.287	-3.352	-3.859
C	-101.873	-3.563	-3.516
C	-101.166	-2.392	-3.895
N	-102.038	-1.474	-4.472
C	-103.333	-1.958	-4.472
C	-101.14	-4.571	-2.874
O	-104.279	-1.338	-4.938
C	-101.676	-0.172	-4.99
H	-106.144	-1.806	-4.353
H	-108.376	-6.191	-3.568
H	-108.585	-1.968	-4.414
H	-99.315	-1.303	-3.986
H	-101.631	-5.477	-2.559
H	-99.231	-5.206	-2.158
H	-106.465	-7.949	-4.007
H	-106.57	-7.609	-2.259
H	-105.0	-8.046	-2.99
H	-101.234	0.451	-4.204
H	-100.957	-0.268	-5.813
H	-102.589	0.297	-5.359
C	-99.772	-4.411	-2.657
C	-99.809	-2.218	-3.687
C	-99.086	-3.251	-3.059
C	-113.124	-4.275	-4.155
C	-112.306	-5.344	-4.675
C	-112.399	-3.235	-3.62
N	-112.775	-6.447	-5.264
N	-110.266	-6.359	-5.181
S	-111.472	-7.34	-5.713
F	-110.475	-2.089	-2.979
F	-113.011	-2.178	-3.062
C	-110.973	-3.185	-3.573
C	-110.848	-5.293	-4.627
C	-110.143	-4.171	-4.057
C	-124.26	-4.135	-3.885
C	-123.53	-5.311	-3.636
C	-123.557	-2.933	-4.104
C	-122.175	-2.958	-4.058
C	-121.42	-4.129	-3.785
C	-122.137	-5.316	-3.581
N	-121.321	-1.882	-4.284
C	-119.999	-2.278	-4.206
C	-119.998	-3.764	-3.867
O	-119.06	-1.508	-4.353
C	-121.728	-0.521	-4.56
C	-118.843	-4.489	-3.67
C	-117.428	-4.178	-3.92
C	-116.667	-5.297	-3.493
N	-117.509	-6.276	-2.972
C	-118.832	-5.883	-3.058
C	-116.727	-3.12	-4.515
O	-119.76	-6.57	-2.653
C	-117.091	-7.55	-2.428
H	-121.612	-6.232	-3.361
H	-124.089	-2.012	-4.3
H	-124.057	-6.241	-3.461
H	-114.754	-6.254	-3.278
H	-117.259	-2.249	-4.864
H	-114.825	-2.35	-5.106
H	-122.339	-0.126	-3.741
H	-122.305	-0.468	-5.491
H	-120.821	0.076	-4.661
H	-116.556	-8.139	-3.183
H	-116.437	-7.406	-1.56
H	-117.991	-8.083	-2.119
C	-115.34	-3.182	-4.641
C	-115.291	-5.376	-3.611
C	-114.603	-4.293	-4.193
C	-128.719	-4.257	-4.021
C	-128.014	-3.135	-3.451
C	-127.89	-5.243	-4.505
N	-128.597	-2.069	-2.897
N	-126.088	-1.98	-2.815
S	-127.391	-1.087	-2.365
F	-125.852	-6.249	-5.017
F	-128.388	-6.339	-5.099
C	-126.464	-5.193	-4.459
C	-126.556	-3.084	-3.403
C	-125.739	-4.152	-3.923
C	-139.777	-5.176	-5.02
C	-139.116	-3.951	-5.224
C	-139.007	-6.326	-4.753
C	-137.63	-6.205	-4.708
C	-136.942	-4.983	-4.933
C	-137.726	-3.849	-5.187
N	-136.719	-7.219	-4.425
C	-135.426	-6.731	-4.416
C	-135.507	-5.248	-4.758
O	-134.447	-7.434	-4.207
C	-137.047	-8.606	-4.172
C	-134.395	-4.444	-4.88
C	-132.981	-4.655	-4.538
C	-132.274	-3.484	-4.917
N	-133.147	-2.566	-5.493
C	-134.442	-3.05	-5.494
C	-132.248	-5.663	-3.895
O	-135.387	-2.43	-5.96
C	-132.784	-1.264	-6.012
H	-137.253	-2.898	-5.374
H	-139.484	-7.284	-4.59
H	-139.694	-3.06	-5.435
H	-130.423	-2.395	-5.008
H	-132.74	-6.569	-3.58
H	-130.34	-6.298	-3.179
H	-137.574	-9.041	-5.029
H	-137.679	-8.701	-3.281
H	-136.109	-9.138	-4.011
H	-132.343	-0.641	-5.225
H	-132.066	-1.36	-6.834
H	-133.697	-0.795	-6.381
C	-130.88	-5.503	-3.679
C	-130.917	-3.31	-4.708
C	-130.195	-4.343	-4.08
C	-144.233	-5.368	-5.177
C	-143.415	-6.436	-5.697
C	-143.508	-4.327	-4.641
N	-143.884	-7.539	-6.285
N	-141.375	-7.451	-6.203
S	-142.58	-8.432	-6.735
F	-141.583	-3.181	-4.0
F	-144.12	-3.27	-4.084
C	-142.082	-4.277	-4.595
C	-141.957	-6.385	-5.649
C	-141.252	-5.263	-5.079
H	10.909	0.053	-0.207
H	-145.315	-5.383	-5.205
