512
IGDPT_10
C	-0.887	-0.527	0.157
C	-1.729	-1.597	0.526
C	-1.482	0.713	-0.165
C	-2.858	0.831	-0.097
C	-3.72	-0.233	0.285
C	-3.113	-1.463	0.586
N	-3.609	1.958	-0.411
C	-4.964	1.695	-0.286
C	-5.097	0.257	0.184
O	-5.826	2.539	-0.494
C	-3.084	3.242	-0.82
C	-6.316	-0.335	0.455
C	-7.694	0.082	0.189
C	-8.555	-0.914	0.726
N	-7.801	-1.912	1.333
C	-6.447	-1.654	1.199
C	-8.306	1.143	-0.499
O	-5.582	-2.387	1.661
C	-8.324	-3.081	2.006
H	-3.72	-2.3	0.893
H	-0.874	1.55	-0.492
H	-1.288	-2.547	0.807
H	-10.544	-1.633	1.093
H	-7.699	1.921	-0.935
H	-10.131	2.014	-1.18
H	-2.429	3.659	-0.045
H	-2.516	3.154	-1.754
H	-3.934	3.907	-0.973
H	-8.918	-3.695	1.318
H	-8.954	-2.792	2.856
H	-7.472	-3.658	2.366
C	-9.691	1.199	-0.616
C	-9.933	-0.864	0.632
C	-10.533	0.218	-0.049
C	6.944	-0.558	-0.056
S	5.799	0.8	0.077
C	6.29	-1.773	-0.144
C	4.885	-1.623	-0.1
C	4.448	-0.292	0.03
N	3.79	-2.469	-0.154
C	2.661	-1.676	-0.034
C	3.041	-0.325	0.068
C	3.823	-3.918	-0.184
H	2.932	-4.292	-0.695
H	3.861	-4.349	0.825
H	4.701	-4.25	-0.744
H	0.779	-2.855	-0.102
H	6.814	-2.719	-0.202
C	1.264	-1.89	-0.012
S	1.645	0.702	0.194
C	0.559	-0.706	0.102
C	17.959	0.879	-0.744
C	17.052	1.908	-1.07
C	17.439	-0.387	-0.395
C	16.069	-0.569	-0.395
C	15.14	0.454	-0.732
C	15.674	1.71	-1.061
N	15.387	-1.729	-0.045
C	14.017	-1.53	-0.103
C	13.794	-0.099	-0.564
O	13.207	-2.412	0.146
C	15.991	-2.987	0.335
C	12.537	0.434	-0.774
C	11.195	-0.046	-0.44
C	10.263	0.909	-0.933
N	10.939	1.94	-1.575
C	12.309	1.746	-1.509
C	10.667	-1.133	0.276
O	13.115	2.517	-2.012
C	10.329	3.083	-2.22
H	15.014	2.518	-1.337
H	18.102	-1.194	-0.099
H	17.434	2.878	-1.371
H	8.227	1.535	-1.201
H	11.331	-1.881	0.681
H	8.921	-2.087	1.046
H	16.625	-3.374	-0.471
H	16.599	-2.871	1.241
H	15.181	-3.691	0.53
H	9.743	3.67	-1.503
H	9.673	2.764	-3.038
H	11.136	3.698	-2.621
C	9.294	-1.253	0.461
C	8.895	0.795	-0.771
C	8.381	-0.313	-0.062
C	25.782	1.273	-0.919
S	24.696	-0.136	-0.997
C	25.077	2.457	-0.797
C	23.68	2.242	-0.771
C	23.3	0.892	-0.881
N	22.551	3.037	-0.662
C	21.455	2.191	-0.727
C	21.892	0.859	-0.849
C	22.518	4.485	-0.633
H	21.637	4.819	-0.077
H	22.486	4.916	-1.642
H	23.406	4.859	-0.116
H	19.527	3.282	-0.565
H	25.559	3.427	-0.764
C	20.05	2.341	-0.68
S	20.541	-0.232	-0.907
C	19.397	1.125	-0.761
C	36.873	0.348	-0.757
C	36.031	-0.722	-0.387
C	36.278	1.588	-1.078
C	34.902	1.706	-1.01
C	34.04	0.642	-0.629
C	34.648	-0.588	-0.327
N	34.151	2.833	-1.324
C	32.796	2.57	-1.199
C	32.663	1.132	-0.729
O	31.934	3.414	-1.407
C	34.677	4.117	-1.733
C	31.444	0.54	-0.458
C	30.066	0.957	-0.724
C	29.205	-0.039	-0.188
N	29.959	-1.037	0.419
C	31.313	-0.779	0.286
C	29.454	2.018	-1.412
O	32.178	-1.512	0.748
C	29.436	-2.206	1.093
H	34.04	-1.425	-0.021
H	36.887	2.425	-1.405
H	36.472	-1.672	-0.106
H	27.216	-0.758	0.18
H	30.061	2.796	-1.848
H	27.629	2.889	-2.094
H	35.331	4.534	-0.959
H	35.244	4.029	-2.667
H	33.826	4.782	-1.886
H	28.843	-2.82	0.405
H	28.807	-1.917	1.943
H	30.289	-2.783	1.453
C	28.069	2.074	-1.529
C	27.827	0.011	-0.281
C	27.228	1.093	-0.963
C	44.704	0.317	-0.969
S	43.559	1.675	-0.836
C	44.05	-0.898	-1.057
C	42.645	-0.748	-1.013
C	42.208	0.583	-0.883
N	41.55	-1.594	-1.067
C	40.421	-0.801	-0.948
C	40.801	0.55	-0.845
C	41.583	-3.043	-1.097
H	40.692	-3.417	-1.608
H	41.621	-3.474	-0.088
H	42.461	-3.375	-1.657
H	38.54	-1.98	-1.015
H	44.574	-1.844	-1.115
C	39.024	-1.015	-0.925
S	39.405	1.577	-0.72
C	38.319	0.169	-0.811
C	55.72	1.754	-1.657
C	54.812	2.783	-1.983
C	55.2	0.488	-1.308
C	53.829	0.306	-1.308
C	52.901	1.329	-1.645
C	53.435	2.585	-1.975
N	53.147	-0.854	-0.959
C	51.777	-0.655	-1.016
C	51.555	0.776	-1.477
O	50.967	-1.537	-0.767
C	53.752	-2.112	-0.578
C	50.297	1.309	-1.687
C	48.955	0.829	-1.353
C	48.024	1.784	-1.846
N	48.7	2.815	-2.488
C	50.069	2.621	-2.422
C	48.428	-0.258	-0.637
O	50.875	3.392	-2.925
C	48.09	3.958	-3.134
H	52.774	3.393	-2.25
H	55.862	-0.319	-1.013
H	55.194	3.753	-2.285
H	45.987	2.41	-2.114
H	49.091	-1.006	-0.233
H	46.681	-1.212	0.132
H	54.386	-2.499	-1.384
H	54.359	-1.996	0.327
H	52.941	-2.816	-0.383
H	47.503	4.545	-2.417
H	47.433	3.639	-3.952
H	48.896	4.573	-3.534
C	47.054	-0.378	-0.453
C	46.655	1.67	-1.684
C	46.141	0.562	-0.975
C	63.542	2.148	-1.832
S	62.456	0.739	-1.91
C	62.837	3.332	-1.71
C	61.44	3.117	-1.685
C	61.06	1.767	-1.795
N	60.311	3.912	-1.576
C	59.215	3.066	-1.64
C	59.652	1.734	-1.763
C	60.278	5.36	-1.546
H	59.398	5.694	-0.991
H	60.247	5.791	-2.555
H	61.166	5.734	-1.029
H	57.287	4.157	-1.478
H	63.319	4.302	-1.677
C	57.811	3.216	-1.593
S	58.301	0.643	-1.821
C	57.157	2.0	-1.674
C	74.633	1.223	-1.67
C	73.791	0.153	-1.3
C	74.038	2.463	-1.991
C	72.662	2.581	-1.923
C	71.8	1.517	-1.542
C	72.408	0.287	-1.241
N	71.911	3.708	-2.237
C	70.556	3.445	-2.112
C	70.424	2.007	-1.643
O	69.695	4.289	-2.32
C	72.437	4.992	-2.646
C	69.204	1.415	-1.371
C	67.826	1.832	-1.638
C	66.966	0.836	-1.101
N	67.72	-0.162	-0.494
C	69.074	0.096	-0.628
C	67.214	2.893	-2.326
O	69.939	-0.637	-0.166
C	67.196	-1.331	0.179
H	71.8	-0.55	-0.934
H	74.647	3.3	-2.318
H	74.232	-0.797	-1.019
H	64.976	0.117	-0.733
H	67.822	3.671	-2.762
H	65.389	3.764	-3.007
H	73.091	5.409	-1.872
H	73.004	4.904	-3.58
H	71.586	5.657	-2.799
H	66.603	-1.945	-0.508
H	66.567	-1.042	1.029
H	68.049	-1.908	0.539
C	65.829	2.949	-2.442
C	65.587	0.886	-1.195
C	64.988	1.968	-1.876
C	82.464	1.192	-1.882
S	81.319	2.55	-1.749
C	81.81	-0.023	-1.97
C	80.406	0.127	-1.927
C	79.969	1.458	-1.797
N	79.31	-0.719	-1.981
C	78.181	0.074	-1.861
C	78.561	1.425	-1.759
C	79.343	-2.168	-2.01
H	78.453	-2.542	-2.522
H	79.381	-2.599	-1.002
H	80.221	-2.5	-2.571
H	76.3	-1.105	-1.929
H	82.334	-0.969	-2.028
C	76.784	-0.14	-1.839
S	77.165	2.452	-1.633
C	76.079	1.044	-1.724
C	93.48	2.629	-2.57
C	92.572	3.658	-2.897
C	92.96	1.363	-2.222
C	91.589	1.181	-2.222
C	90.661	2.204	-2.558
C	91.195	3.46	-2.888
N	90.907	0.021	-1.872
C	89.537	0.22	-1.93
C	89.315	1.651	-2.39
O	88.727	-0.662	-1.68
C	91.512	-1.237	-1.491
C	88.057	2.184	-2.601
C	86.715	1.704	-2.267
C	85.784	2.659	-2.759
N	86.46	3.69	-3.402
C	87.829	3.496	-3.335
C	86.188	0.617	-1.55
O	88.635	4.267	-3.839
C	85.85	4.833	-4.047
H	90.534	4.268	-3.163
H	93.622	0.556	-1.926
H	92.954	4.628	-3.198
H	83.747	3.285	-3.027
H	86.852	-0.131	-1.146
H	84.441	-0.337	-0.781
H	92.146	-1.624	-2.297
H	92.12	-1.121	-0.586
H	90.701	-1.941	-1.297
H	85.264	5.42	-3.33
H	85.193	4.514	-4.865
H	86.656	5.448	-4.448
C	84.815	0.497	-1.366
C	84.415	2.545	-2.597
C	83.901	1.437	-1.889
C	101.302	3.023	-2.746
S	100.216	1.614	-2.823
C	100.597	4.207	-2.624
C	99.201	3.992	-2.598
C	98.82	2.642	-2.708
N	98.071	4.787	-2.489
C	96.976	3.941	-2.554
C	97.413	2.609	-2.676
C	98.039	6.236	-2.459
H	97.158	6.569	-1.904
H	98.007	6.666	-3.468
H	98.927	6.609	-1.943
H	95.047	5.032	-2.392
H	101.079	5.177	-2.591
C	95.571	4.091	-2.507
S	96.061	1.518	-2.734
C	94.917	2.875	-2.588
C	112.393	2.098	-2.583
C	111.552	1.029	-2.214
C	111.799	3.338	-2.904
C	110.423	3.456	-2.836
C	109.561	2.392	-2.455
C	110.168	1.162	-2.154
N	109.671	4.583	-3.15
C	108.317	4.32	-3.026
C	108.184	2.882	-2.556
O	107.455	5.164	-3.233
C	110.197	5.867	-3.559
C	106.964	2.29	-2.284
C	105.586	2.707	-2.551
C	104.726	1.711	-2.014
N	105.48	0.713	-1.407
C	106.834	0.971	-1.541
C	104.974	3.768	-3.239
O	107.699	0.238	-1.079
C	104.956	-0.456	-0.734
H	109.56	0.325	-1.847
H	112.407	4.175	-3.231
H	111.993	0.078	-1.933
H	102.737	0.992	-1.647
H	105.582	4.546	-3.675
H	103.149	4.639	-3.92
H	110.852	6.284	-2.785
H	110.764	5.779	-4.494
H	109.346	6.532	-3.713
H	104.363	-1.07	-1.422
H	104.327	-0.167	0.116
H	105.809	-1.033	-0.374
C	103.59	3.824	-3.355
C	103.347	1.761	-2.108
C	102.748	2.843	-2.789
C	120.225	2.067	-2.795
S	119.08	3.425	-2.662
C	119.57	0.852	-2.883
C	118.166	1.002	-2.84
C	117.729	2.333	-2.71
N	117.07	0.156	-2.894
C	115.941	0.949	-2.774
C	116.322	2.3	-2.672
C	117.104	-1.293	-2.923
H	116.213	-1.667	-3.435
H	117.142	-1.724	-1.915
H	117.981	-1.625	-3.484
H	114.06	-0.23	-2.842
H	120.095	-0.094	-2.941
C	114.544	0.735	-2.752
S	114.926	3.327	-2.546
C	113.84	1.919	-2.637
C	131.24	3.504	-3.484
C	130.332	4.533	-3.81
C	130.72	2.238	-3.135
C	129.349	2.056	-3.135
C	128.421	3.079	-3.472
C	128.955	4.335	-3.801
N	128.668	0.896	-2.785
C	127.298	1.095	-2.843
C	127.075	2.526	-3.304
O	126.487	0.213	-2.593
C	129.272	-0.362	-2.404
C	125.817	3.059	-3.514
C	124.475	2.579	-3.18
C	123.544	3.534	-3.672
N	124.22	4.565	-4.315
C	125.589	4.371	-4.249
C	123.948	1.492	-2.464
O	126.396	5.142	-4.752
C	123.61	5.708	-4.96
H	128.295	5.143	-4.077
H	131.382	1.431	-2.839
H	130.714	5.503	-4.111
H	121.508	4.16	-3.94
H	124.612	0.744	-2.059
H	122.201	0.538	-1.694
H	129.906	-0.749	-3.21
H	129.88	-0.246	-1.499
H	128.462	-1.066	-2.21
H	123.024	6.295	-4.243
H	122.954	5.389	-5.778
H	124.416	6.323	-5.361
C	122.575	1.372	-2.279
C	122.176	3.42	-3.511
C	121.662	2.312	-2.802
C	139.062	3.898	-3.659
S	137.976	2.489	-3.737
C	138.358	5.082	-3.537
C	136.961	4.867	-3.511
C	136.58	3.517	-3.621
N	135.831	5.662	-3.402
C	134.736	4.816	-3.467
C	135.173	3.484	-3.589
C	135.799	7.111	-3.373
H	134.918	7.444	-2.817
H	135.767	7.541	-4.381
H	136.687	7.484	-2.856
H	132.808	5.907	-3.305
H	138.84	6.052	-3.504
C	133.331	4.966	-3.42
S	133.822	2.393	-3.647
C	132.677	3.75	-3.501
C	150.154	2.973	-3.497
C	149.312	1.904	-3.127
C	149.559	4.213	-3.818
C	148.183	4.331	-3.75
C	147.321	3.267	-3.368
C	147.928	2.037	-3.067
N	147.431	5.458	-4.064
C	146.077	5.196	-3.939
C	145.944	3.757	-3.469
O	145.215	6.039	-4.147
C	147.957	6.742	-4.473
C	144.724	3.165	-3.198
C	143.347	3.582	-3.464
C	142.486	2.586	-2.927
N	143.24	1.588	-2.32
C	144.594	1.846	-2.454
C	142.735	4.643	-4.152
O	145.459	1.113	-1.992
C	142.716	0.419	-1.647
H	147.32	1.2	-2.761
H	150.167	5.05	-4.145
H	149.753	0.953	-2.846
H	140.497	1.867	-2.56
H	143.342	5.421	-4.588
H	140.909	5.514	-4.834
H	148.612	7.159	-3.698
H	148.524	6.654	-5.407
H	147.107	7.407	-4.626
H	142.123	-0.195	-2.335
H	142.087	0.708	-0.797
H	143.569	-0.158	-1.287
C	141.35	4.699	-4.269
C	141.108	2.636	-3.021
C	140.508	3.718	-3.702
C	157.985	2.942	-3.709
S	156.84	4.3	-3.576
C	157.331	1.727	-3.797
C	155.926	1.877	-3.753
C	155.489	3.208	-3.623
N	154.83	1.031	-3.807
C	153.701	1.824	-3.688
C	154.082	3.175	-3.585
C	154.864	-0.418	-3.837
H	153.973	-0.792	-4.348
H	154.902	-0.849	-2.828
H	155.742	-0.75	-4.397
H	151.82	0.645	-3.755
H	157.855	0.781	-3.855
C	152.304	1.61	-3.665
S	152.686	4.202	-3.46
C	151.6	2.794	-3.551
C	169.0	4.379	-4.397
C	168.093	5.408	-4.723
C	168.48	3.113	-4.048
C	167.11	2.931	-4.048
C	166.181	3.954	-4.385
C	166.715	5.211	-4.715
N	166.428	1.771	-3.699
C	165.058	1.97	-3.756
C	164.835	3.401	-4.217
O	164.248	1.088	-3.507
C	167.032	0.513	-3.318
C	163.578	3.934	-4.427
C	162.236	3.454	-4.093
C	161.304	4.409	-4.586
N	161.98	5.44	-5.228
C	163.35	5.246	-5.162
C	161.708	2.367	-3.377
O	164.156	6.017	-5.665
C	161.37	6.583	-5.873
H	166.055	6.018	-4.99
H	169.142	2.306	-3.752
H	168.475	6.378	-5.025
H	159.268	5.035	-4.854
H	162.372	1.619	-2.972
H	159.961	1.413	-2.607
H	167.666	0.126	-4.124
H	167.64	0.629	-2.412
H	166.222	-0.19	-3.123
H	160.784	7.17	-5.156
H	160.714	6.264	-6.691
H	162.177	7.198	-6.274
C	160.335	2.247	-3.192
C	159.936	4.295	-4.424
C	159.422	3.187	-3.715
C	176.823	4.773	-4.572
S	175.737	3.364	-4.65
C	176.118	5.957	-4.45
C	174.721	5.742	-4.425
C	174.341	4.392	-4.534
N	173.591	6.537	-4.316
C	172.496	5.691	-4.38
C	172.933	4.359	-4.503
C	173.559	7.986	-4.286
H	172.678	8.319	-3.731
H	173.527	8.416	-5.295
H	174.447	8.359	-3.769
H	170.568	6.782	-4.218
H	176.6	6.927	-4.417
C	171.091	5.841	-4.333
S	171.582	3.269	-4.56
C	170.437	4.625	-4.414
H	-11.609	0.293	-0.135
H	177.902	4.711	-4.615
