452
IGFBTF_10
C	-0.462	0.006	-0.096
C	-1.179	-1.186	-0.304
C	-1.2	1.187	0.068
C	-2.582	1.18	-0.009
C	-3.3	-0.019	-0.256
C	-2.568	-1.209	-0.387
N	-3.457	2.248	0.172
C	-4.768	1.812	0.086
C	-4.729	0.32	-0.21
O	-5.729	2.562	0.188
C	-3.112	3.642	0.399
C	-5.861	-0.438	-0.412
C	-7.285	-0.163	-0.17
C	-8.006	-1.309	-0.594
N	-7.141	-2.268	-1.115
C	-5.83	-1.829	-1.025
C	-8.008	0.883	0.42
O	-4.88	-2.48	-1.436
C	-7.491	-3.553	-1.7
H	-3.08	-2.139	-0.576
F	-0.559	2.348	0.342
H	-0.627	-2.112	-0.414
F	-10.016	-2.507	-0.887
H	-7.495	1.771	0.755
H	-9.93	1.616	0.998
H	-2.501	4.027	-0.422
H	-2.561	3.761	1.336
H	-4.051	4.194	0.451
H	-7.984	-4.196	-0.965
H	-8.157	-3.419	-2.557
H	-6.558	-4.013	-2.026
C	-9.391	0.79	0.552
C	-9.381	-1.387	-0.45
C	-10.117	-0.337	0.125
C	3.967	0.083	0.001
C	3.228	-0.89	0.767
C	3.202	0.967	-0.732
N	3.755	-1.818	1.572
N	1.242	-1.86	1.525
S	2.501	-2.647	2.229
F	1.187	1.816	-1.551
H	3.665	1.727	-1.348
C	1.785	0.919	-0.746
C	1.771	-0.915	0.742
C	1.014	0.023	-0.04
C	15.096	0.173	0.481
C	14.325	1.334	0.669
C	14.411	-1.037	0.297
C	13.028	-1.086	0.335
C	12.256	0.082	0.562
C	12.934	1.301	0.713
N	12.203	-2.189	0.131
C	10.874	-1.808	0.18
C	10.843	-0.315	0.476
O	9.948	-2.596	0.052
C	12.611	-3.568	-0.085
C	9.676	0.396	0.646
C	8.272	0.063	0.365
C	7.493	1.178	0.768
N	8.303	2.171	1.312
C	9.632	1.787	1.259
C	7.609	-1.012	-0.245
O	10.543	2.475	1.696
C	7.884	3.44	1.886
H	12.38	2.209	0.887
F	15.107	-2.171	0.042
H	14.835	2.282	0.793
F	5.428	2.292	1.004
H	8.167	-1.877	-0.564
H	5.736	-1.822	-0.875
H	13.214	-3.929	0.753
H	13.192	-3.664	-1.006
H	11.697	-4.158	-0.163
H	7.387	4.063	1.138
H	7.201	3.279	2.724
H	8.788	3.938	2.238
C	6.228	-0.975	-0.416
C	6.121	1.2	0.585
C	5.444	0.121	-0.009
C	19.525	0.277	0.508
C	18.768	1.22	-0.279
C	18.776	-0.638	1.22
N	19.28	2.168	-1.069
N	16.766	2.108	-1.092
S	18.011	2.946	-1.761
F	16.776	-1.569	1.983
H	19.253	-1.379	1.849
C	17.359	-0.648	1.194
C	17.311	1.184	-0.294
C	16.572	0.217	0.467
C	30.657	0.631	0.347
C	29.94	-0.56	0.139
C	29.919	1.812	0.511
C	28.536	1.805	0.434
C	27.819	0.607	0.186
C	28.551	-0.584	0.055
N	27.662	2.873	0.614
C	26.351	2.438	0.528
C	26.39	0.945	0.232
O	25.39	3.188	0.63
C	28.007	4.268	0.841
C	25.258	0.187	0.031
C	23.834	0.462	0.272
C	23.113	-0.683	-0.152
N	23.978	-1.643	-0.672
C	25.288	-1.204	-0.582
C	23.111	1.509	0.862
O	26.239	-1.854	-0.993
C	23.627	-2.927	-1.257
H	28.039	-1.514	-0.134
F	30.56	2.974	0.785
H	30.492	-1.486	0.029
F	21.103	-1.881	-0.445
H	23.624	2.396	1.197
H	21.189	2.242	1.44
H	28.617	4.653	0.02
H	28.558	4.386	1.778
H	27.067	4.819	0.893
H	23.135	-3.57	-0.523
H	22.962	-2.794	-2.115
H	24.561	-3.387	-1.584
C	21.728	1.416	0.995
C	21.738	-0.761	-0.007
C	21.002	0.288	0.567
C	35.086	0.709	0.444
C	34.347	-0.265	1.21
C	34.321	1.593	-0.289
N	34.874	-1.192	2.015
N	32.361	-1.235	1.967
S	33.619	-2.022	2.672
F	32.306	2.442	-1.109
H	34.784	2.353	-0.905
C	32.904	1.545	-0.303
C	32.889	-0.289	1.185
C	32.133	0.648	0.402
C	46.214	0.799	0.924
C	45.444	1.96	1.111
C	45.53	-0.411	0.74
C	44.147	-0.461	0.778
C	43.375	0.707	1.005
C	44.053	1.927	1.156
N	43.322	-1.563	0.574
C	41.992	-1.182	0.623
C	41.962	0.311	0.919
O	41.066	-1.97	0.494
C	43.73	-2.943	0.358
C	40.795	1.022	1.088
C	39.391	0.689	0.807
C	38.612	1.804	1.21
N	39.422	2.797	1.754
C	40.751	2.412	1.702
C	38.728	-0.386	0.198
O	41.662	3.101	2.138
C	39.003	4.066	2.329
H	43.499	2.835	1.33
F	46.225	-1.545	0.484
H	45.954	2.907	1.236
F	36.547	2.918	1.446
H	39.286	-1.252	-0.122
H	36.854	-1.197	-0.433
H	44.333	-3.303	1.196
H	44.311	-3.038	-0.564
H	42.816	-3.532	0.28
H	38.506	4.689	1.58
H	38.32	3.905	3.167
H	39.907	4.564	2.681
C	37.347	-0.35	0.027
C	37.24	1.826	1.028
C	36.563	0.747	0.433
C	50.643	0.903	0.951
C	49.887	1.846	0.164
C	49.895	-0.013	1.662
N	50.399	2.794	-0.627
N	47.885	2.734	-0.65
S	49.13	3.572	-1.319
F	47.895	-0.943	2.426
H	50.372	-0.753	2.292
C	48.478	-0.022	1.637
C	48.43	1.81	0.148
C	47.69	0.842	0.91
C	61.776	1.257	0.79
C	61.059	0.066	0.581
C	61.038	2.438	0.954
C	59.655	2.431	0.877
C	58.938	1.232	0.629
C	59.67	0.042	0.498
N	58.78	3.499	1.057
C	57.47	3.064	0.971
C	57.509	1.571	0.675
O	56.509	3.813	1.073
C	59.125	4.893	1.284
C	56.377	0.813	0.474
C	54.953	1.088	0.715
C	54.232	-0.058	0.291
N	55.096	-1.017	-0.229
C	56.407	-0.578	-0.14
C	54.23	2.135	1.305
O	57.357	-1.229	-0.551
C	54.746	-2.301	-0.815
H	59.158	-0.888	0.309
F	61.679	3.599	1.228
H	61.611	-0.86	0.471
F	52.221	-1.255	-0.002
H	54.742	3.022	1.64
H	52.308	2.867	1.883
H	59.736	5.279	0.463
H	59.676	5.012	2.221
H	58.186	5.445	1.336
H	54.254	-2.945	-0.08
H	54.08	-2.168	-1.672
H	55.679	-2.762	-1.141
C	52.847	2.041	1.437
C	52.857	-0.136	0.435
C	52.12	0.914	1.01
C	66.204	1.334	0.886
C	65.466	0.361	1.653
C	65.439	2.219	0.154
N	65.993	-0.566	2.457
N	63.48	-0.609	2.41
S	64.738	-1.396	3.114
F	63.425	3.067	-0.666
H	65.903	2.978	-0.462
C	64.023	2.17	0.139
C	64.008	0.337	1.627
C	63.251	1.274	0.845
C	77.333	1.424	1.366
C	76.563	2.586	1.554
C	76.649	0.215	1.182
C	75.266	0.165	1.221
C	74.493	1.333	1.447
C	75.172	2.552	1.598
N	74.441	-0.938	1.016
C	73.111	-0.557	1.066
C	73.081	0.936	1.362
O	72.185	-1.345	0.937
C	74.849	-2.317	0.8
C	71.914	1.647	1.531
C	70.51	1.314	1.25
C	69.731	2.429	1.653
N	70.541	3.423	2.197
C	71.87	3.038	2.144
C	69.847	0.239	0.641
O	72.781	3.727	2.581
C	70.122	4.692	2.771
H	74.617	3.46	1.772
F	77.344	-0.919	0.927
H	77.073	3.533	1.678
F	67.666	3.544	1.889
H	70.404	-0.626	0.321
H	67.973	-0.571	0.01
H	75.451	-2.677	1.638
H	75.43	-2.412	-0.121
H	73.934	-2.906	0.722
H	69.624	5.315	2.023
H	69.438	4.531	3.61
H	71.026	5.189	3.123
C	68.466	0.276	0.469
C	68.358	2.451	1.47
C	67.682	1.372	0.876
C	81.762	1.528	1.394
C	81.006	2.471	0.606
C	81.014	0.613	2.105
N	81.517	3.42	-0.184
N	79.004	3.359	-0.207
S	80.248	4.198	-0.876
F	79.014	-0.318	2.868
H	81.491	-0.127	2.734
C	79.597	0.603	2.08
C	79.549	2.436	0.591
C	78.809	1.468	1.352
C	92.895	1.883	1.232
C	92.178	0.691	1.024
C	92.157	3.064	1.396
C	90.774	3.057	1.319
C	90.057	1.858	1.071
C	90.789	0.668	0.94
N	89.899	4.125	1.5
C	88.588	3.689	1.413
C	88.628	2.197	1.118
O	87.628	4.439	1.516
C	90.244	5.519	1.726
C	87.495	1.439	0.916
C	86.072	1.714	1.158
C	85.35	0.568	0.733
N	86.215	-0.391	0.213
C	87.526	0.048	0.303
C	85.348	2.76	1.748
O	88.476	-0.603	-0.108
C	85.865	-1.676	-0.372
H	90.277	-0.262	0.751
F	92.797	4.225	1.67
H	92.73	-0.235	0.914
F	83.34	-0.63	0.441
H	85.861	3.648	2.082
H	83.427	3.493	2.325
H	90.855	5.904	0.905
H	90.795	5.638	2.663
H	89.305	6.071	1.778
H	85.373	-2.319	0.362
H	85.199	-1.542	-1.229
H	86.798	-2.136	-0.698
C	83.966	2.667	1.88
C	83.976	0.49	0.878
C	83.239	1.54	1.453
C	97.323	1.96	1.329
C	96.585	0.987	2.095
C	96.558	2.844	0.596
N	97.112	0.059	2.9
N	94.599	0.017	2.853
S	95.857	-0.77	3.557
F	94.544	3.693	-0.223
H	97.022	3.604	-0.02
C	95.142	2.796	0.582
C	95.127	0.962	2.07
C	94.37	1.9	1.287
C	108.452	2.05	1.809
C	107.681	3.211	1.996
C	107.768	0.84	1.625
C	106.384	0.791	1.663
C	105.612	1.959	1.89
C	106.291	3.178	2.041
N	105.559	-0.312	1.459
C	104.23	0.069	1.508
C	104.2	1.562	1.804
O	103.304	-0.719	1.38
C	105.967	-1.691	1.243
C	103.032	2.273	1.973
C	101.629	1.94	1.693
C	100.849	3.055	2.096
N	101.659	4.048	2.639
C	102.989	3.664	2.587
C	100.965	0.865	1.083
O	103.9	4.352	3.024
C	101.241	5.317	3.214
H	105.736	4.086	2.215
F	108.463	-0.294	1.37
H	108.192	4.159	2.121
F	98.784	4.169	2.332
H	101.523	-0.0	0.763
H	99.092	0.055	0.452
H	106.57	-2.052	2.081
H	106.549	-1.787	0.322
H	105.053	-2.281	1.165
H	100.743	5.94	2.466
H	100.557	5.156	4.052
H	102.145	5.815	3.566
C	99.584	0.902	0.912
C	99.477	3.077	1.913
C	98.801	1.998	1.318
C	112.881	2.154	1.836
C	112.125	3.097	1.049
C	112.133	1.239	2.548
N	112.636	4.045	0.259
N	110.123	3.985	0.236
S	111.367	4.823	-0.434
F	110.132	0.308	3.311
H	112.61	0.498	3.177
C	110.715	1.229	2.522
C	110.667	3.061	1.033
C	109.928	2.094	1.795
C	124.013	2.508	1.675
C	123.297	1.317	1.466
C	123.275	3.689	1.839
C	121.893	3.682	1.762
C	121.176	2.484	1.514
C	121.908	1.293	1.383
N	121.018	4.75	1.942
C	119.707	4.315	1.856
C	119.746	2.822	1.56
O	118.747	5.065	1.958
C	121.363	6.145	2.169
C	118.614	2.064	1.359
C	117.191	2.339	1.6
C	116.469	1.194	1.176
N	117.334	0.234	0.656
C	118.645	0.673	0.745
C	116.467	3.386	2.19
O	119.595	0.023	0.334
C	116.984	-1.05	0.07
H	121.396	0.363	1.194
F	123.916	4.851	2.113
H	123.849	0.391	1.357
F	114.459	-0.004	0.883
H	116.98	4.273	2.525
H	114.545	4.119	2.768
H	121.974	6.53	1.348
H	121.914	6.263	3.106
H	120.424	6.696	2.221
H	116.492	-1.693	0.805
H	116.318	-0.917	-0.787
H	117.917	-1.51	-0.256
C	115.085	3.293	2.323
C	115.095	1.116	1.32
C	114.358	2.165	1.895
C	128.442	2.586	1.771
C	127.703	1.612	2.538
C	127.677	3.47	1.039
N	128.231	0.685	3.343
N	125.717	0.642	3.295
S	126.976	-0.145	3.999
F	125.662	4.319	0.219
H	128.141	4.23	0.423
C	126.26	3.422	1.024
C	126.246	1.588	2.512
C	125.489	2.525	1.73
C	139.571	2.676	2.251
C	138.8	3.837	2.439
C	138.887	1.466	2.067
C	137.503	1.416	2.106
C	136.731	2.584	2.333
C	137.41	3.804	2.483
N	136.678	0.314	1.902
C	135.349	0.695	1.951
C	135.319	2.188	2.247
O	134.423	-0.093	1.822
C	137.086	-1.066	1.685
C	134.151	2.899	2.416
C	132.747	2.566	2.135
C	131.968	3.681	2.538
N	132.778	4.674	3.082
C	134.108	4.289	3.029
C	132.084	1.491	1.526
O	135.019	4.978	3.466
C	132.36	5.943	3.657
H	136.855	4.712	2.658
F	139.582	0.332	1.812
H	139.311	4.784	2.564
F	129.903	4.795	2.774
H	132.642	0.625	1.206
H	130.211	0.68	0.895
H	137.689	-1.426	2.523
H	137.668	-1.161	0.764
H	136.172	-1.655	1.607
H	131.862	6.566	2.908
H	131.676	5.782	4.495
H	133.264	6.441	4.008
C	130.703	1.527	1.355
C	130.596	3.703	2.355
C	129.919	2.624	1.761
C	144.0	2.78	2.279
C	143.244	3.723	1.491
C	143.251	1.864	2.99
N	143.755	4.671	0.701
N	141.242	4.611	0.678
S	142.486	5.449	0.009
F	141.251	0.934	3.754
H	143.728	1.124	3.619
C	141.834	1.855	2.965
C	141.786	3.687	1.476
C	141.047	2.719	2.237
H	-11.193	-0.393	0.234
H	145.082	2.789	2.309
