512
NDITTT_10
C	5.437	0.424	-0.379
C	5.921	1.53	-1.072
S	6.791	-0.611	0.06
H	7.843	2.363	-1.743
H	5.271	2.295	-1.481
C	7.318	1.568	-1.223
C	7.954	0.497	-0.62
C	-1.036	-0.422	0.785
C	-0.201	0.712	0.803
C	-0.416	-1.685	0.609
C	1.193	0.569	0.563
C	1.8	-0.705	0.388
C	2.038	1.704	0.487
C	0.945	-1.836	0.434
C	1.468	-3.208	0.237
N	2.848	-3.302	0.054
C	3.744	-2.224	0.096
C	1.511	3.075	0.705
N	0.159	3.155	1.044
C	-0.712	2.06	1.182
O	2.213	4.072	0.609
O	-1.835	2.255	1.622
O	0.749	-4.198	0.243
O	4.944	-2.474	0.09
C	3.447	-4.636	-0.078
C	-0.405	4.471	1.369
H	4.052	-4.866	0.803
H	4.095	-4.659	-0.956
H	2.634	-5.351	-0.176
H	-1.307	4.637	0.778
H	0.352	5.219	1.14
H	-0.674	4.512	2.428
H	-1.029	-2.578	0.573
H	3.964	2.469	0.186
C	3.376	1.561	0.21
C	3.203	-0.846	0.159
C	4.02	0.302	0.006
C	-4.991	-0.28	0.489
C	-4.642	-1.248	1.411
S	-3.56	0.518	-0.128
H	-2.792	-2.055	2.303
H	-5.373	-1.848	1.943
C	-3.246	-1.354	1.612
C	-2.504	-0.449	0.878
C	-8.772	0.164	-0.526
C	-8.085	1.298	-0.912
S	-7.672	-0.989	0.211
H	-6.024	2.081	-0.809
H	-8.571	2.148	-1.378
C	-6.704	1.261	-0.606
C	-6.305	0.098	0.022
C	-12.351	0.057	-1.944
C	-12.263	-1.064	-1.123
S	-10.887	1.017	-1.757
H	-10.849	-1.986	0.288
H	-13.063	-1.79	-1.037
C	-11.064	-1.172	-0.396
C	-10.18	-0.141	-0.662
C	-17.672	1.22	-5.726
C	-16.967	0.044	-5.402
C	-17.121	2.451	-5.29
C	-15.8	0.118	-4.593
C	-15.259	1.362	-4.164
C	-15.125	-1.057	-4.18
C	-15.956	2.534	-4.555
C	-15.496	3.88	-4.139
N	-14.32	3.905	-3.388
C	-13.547	2.783	-3.06
C	-15.58	-2.402	-4.616
N	-16.664	-2.417	-5.496
C	-17.338	-1.281	-5.977
O	-15.036	-3.433	-4.244
O	-18.178	-1.423	-6.852
O	-16.093	4.905	-4.437
O	-12.451	2.971	-2.545
C	-13.766	5.209	-3.0
C	-17.104	-3.706	-6.044
H	-12.834	5.397	-3.54
H	-13.55	5.209	-1.93
H	-14.507	5.965	-3.247
H	-18.179	-3.819	-5.892
H	-16.555	-4.488	-5.525
H	-16.902	-3.746	-7.117
H	-17.646	3.374	-5.506
H	-13.549	-1.916	-3.101
C	-14.024	-0.98	-3.362
C	-14.08	1.433	-3.361
C	-13.464	0.247	-2.89
C	-21.383	1.282	-7.131
C	-20.628	2.221	-7.809
S	-20.389	0.419	-5.977
H	-18.536	2.923	-7.826
H	-21.034	2.851	-8.593
C	-19.275	2.253	-7.399
C	-18.96	1.32	-6.431
C	-25.255	1.044	-7.816
C	-24.855	-0.119	-7.188
S	-23.89	2.131	-8.005
H	-22.986	-1.008	-6.419
H	-25.536	-0.938	-6.981
C	-23.474	-0.156	-6.882
C	-22.788	0.978	-7.268
C	-29.088	1.348	-8.041
C	-28.605	2.454	-8.734
S	-27.734	0.312	-7.602
H	-26.682	3.286	-9.405
H	-29.255	3.219	-9.143
C	-27.207	2.492	-8.885
C	-26.572	1.421	-8.282
C	-35.561	0.501	-6.876
C	-34.726	1.636	-6.859
C	-34.941	-0.761	-7.053
C	-33.333	1.493	-7.099
C	-32.725	0.219	-7.274
C	-32.487	2.627	-7.175
C	-33.581	-0.912	-7.228
C	-33.058	-2.285	-7.425
N	-31.677	-2.378	-7.608
C	-30.781	-1.3	-7.566
C	-33.015	3.999	-6.957
N	-34.366	4.079	-6.618
C	-35.237	2.984	-6.48
O	-32.312	4.996	-7.053
O	-36.36	3.179	-6.04
O	-33.776	-3.275	-7.419
O	-29.582	-1.55	-7.572
C	-31.078	-3.712	-7.74
C	-34.93	5.395	-6.293
H	-30.473	-3.942	-6.859
H	-30.43	-3.736	-8.618
H	-31.892	-4.427	-7.838
H	-35.833	5.561	-6.884
H	-34.174	6.142	-6.522
H	-35.199	5.436	-5.234
H	-35.554	-1.654	-7.089
H	-30.561	3.393	-7.476
C	-31.149	2.485	-7.452
C	-31.322	0.078	-7.503
C	-30.505	1.226	-7.656
C	-39.516	0.644	-7.173
C	-39.167	-0.324	-6.251
S	-38.085	1.442	-7.789
H	-37.317	-1.132	-5.359
H	-39.898	-0.924	-5.719
C	-37.771	-0.43	-6.05
C	-37.029	0.475	-6.784
C	-43.297	1.088	-8.187
C	-42.61	2.221	-8.574
S	-42.197	-0.065	-7.451
H	-40.549	3.005	-8.47
H	-43.097	3.072	-9.04
C	-41.229	2.185	-8.267
C	-40.83	1.022	-7.64
C	-46.876	0.981	-9.606
C	-46.788	-0.14	-8.785
S	-45.413	1.941	-9.419
H	-45.375	-1.062	-7.374
H	-47.588	-0.866	-8.698
C	-45.59	-0.248	-8.058
C	-44.705	0.782	-8.324
C	-52.197	2.143	-13.388
C	-51.492	0.968	-13.064
C	-51.646	3.374	-12.951
C	-50.326	1.042	-12.255
C	-49.784	2.286	-11.826
C	-49.65	-0.133	-11.841
C	-50.482	3.458	-12.216
C	-50.022	4.804	-11.801
N	-48.845	4.829	-11.05
C	-48.072	3.707	-10.722
C	-50.106	-1.478	-12.278
N	-51.189	-1.493	-13.158
C	-51.863	-0.357	-13.639
O	-49.562	-2.509	-11.906
O	-52.703	-0.499	-14.514
O	-50.619	5.829	-12.099
O	-46.976	3.895	-10.207
C	-48.291	6.132	-10.662
C	-51.629	-2.782	-13.705
H	-47.36	6.321	-11.202
H	-48.075	6.132	-9.592
H	-49.032	6.889	-10.909
H	-52.704	-2.895	-13.554
H	-51.08	-3.565	-13.186
H	-51.427	-2.822	-14.779
H	-52.171	4.298	-13.168
H	-48.074	-0.992	-10.763
C	-48.55	-0.056	-11.024
C	-48.605	2.357	-11.023
C	-47.989	1.171	-10.552
C	-55.908	2.206	-14.793
C	-55.153	3.145	-15.471
S	-54.915	1.343	-13.638
H	-53.061	3.847	-15.487
H	-55.559	3.775	-16.255
C	-53.8	3.177	-15.061
C	-53.485	2.244	-14.093
C	-59.781	1.967	-15.478
C	-59.381	0.805	-14.85
S	-58.415	3.054	-15.667
H	-57.512	-0.084	-14.081
H	-60.061	-0.015	-14.643
C	-58.0	0.768	-14.543
C	-57.313	1.901	-14.93
C	-63.613	2.271	-15.703
C	-63.13	3.377	-16.396
S	-62.26	1.236	-15.264
H	-61.207	4.21	-17.066
H	-63.78	4.142	-16.805
C	-61.732	3.416	-16.547
C	-61.097	2.345	-15.944
C	-70.087	1.425	-14.538
C	-69.252	2.559	-14.521
C	-69.466	0.163	-14.715
C	-67.858	2.417	-14.761
C	-67.25	1.142	-14.935
C	-67.012	3.551	-14.837
C	-68.106	0.012	-14.889
C	-67.583	-1.361	-15.087
N	-66.202	-1.454	-15.27
C	-65.307	-0.377	-15.228
C	-67.54	4.923	-14.619
N	-68.891	5.003	-14.28
C	-69.763	3.908	-14.141
O	-66.838	5.92	-14.715
O	-70.886	4.103	-13.702
O	-68.301	-2.351	-15.081
O	-64.107	-0.626	-15.233
C	-65.604	-2.789	-15.402
C	-69.455	6.319	-13.955
H	-64.999	-3.018	-14.521
H	-64.956	-2.812	-16.28
H	-66.417	-3.504	-15.5
H	-70.358	6.485	-14.545
H	-68.699	7.066	-14.184
H	-69.724	6.36	-12.896
H	-70.08	-0.73	-14.751
H	-65.086	4.316	-15.138
C	-65.674	3.409	-15.114
C	-65.847	1.002	-15.165
C	-65.031	2.149	-15.318
C	-74.041	1.568	-14.835
C	-73.693	0.599	-13.912
S	-72.61	2.366	-15.451
H	-71.843	-0.208	-13.021
H	-74.424	0.0	-13.381
C	-72.297	0.494	-13.712
C	-71.555	1.398	-14.445
C	-77.822	2.012	-15.849
C	-77.136	3.145	-16.236
S	-76.722	0.859	-15.113
H	-75.074	3.929	-16.132
H	-77.622	3.996	-16.702
C	-75.755	3.108	-15.929
C	-75.355	1.945	-15.302
C	-81.401	1.905	-17.267
C	-81.314	0.784	-16.447
S	-79.938	2.865	-17.081
H	-79.9	-0.139	-15.036
H	-82.113	0.058	-16.36
C	-80.115	0.675	-15.72
C	-79.23	1.706	-15.986
C	-86.723	3.067	-21.05
C	-86.018	1.892	-20.725
C	-86.171	4.298	-20.613
C	-84.851	1.965	-19.917
C	-84.31	3.209	-19.488
C	-84.176	0.791	-19.503
C	-85.007	4.382	-19.878
C	-84.547	5.728	-19.463
N	-83.371	5.753	-18.712
C	-82.597	4.63	-18.384
C	-84.631	-0.555	-19.939
N	-85.714	-0.569	-20.82
C	-86.388	0.567	-21.301
O	-84.087	-1.585	-19.567
O	-87.229	0.425	-22.176
O	-85.144	6.753	-19.761
O	-81.502	4.819	-17.868
C	-82.817	7.056	-18.324
C	-86.154	-1.859	-21.367
H	-81.885	7.245	-18.864
H	-82.601	7.056	-17.254
H	-83.558	7.813	-18.571
H	-87.229	-1.972	-21.216
H	-85.605	-2.641	-20.848
H	-85.952	-1.898	-22.441
H	-86.696	5.221	-20.83
H	-82.599	-0.069	-18.425
C	-83.075	0.868	-18.685
C	-83.131	3.281	-18.685
C	-82.514	2.095	-18.214
C	-90.433	3.13	-22.455
C	-89.678	4.069	-23.133
S	-89.44	2.267	-21.3
H	-87.586	4.77	-23.149
H	-90.085	4.699	-23.917
C	-88.325	4.101	-22.722
C	-88.01	3.168	-21.755
C	-94.306	2.891	-23.14
C	-93.906	1.729	-22.512
S	-92.94	3.978	-23.329
H	-92.037	0.84	-21.743
H	-94.586	0.909	-22.305
C	-92.525	1.691	-22.205
C	-91.839	2.825	-22.592
C	-98.139	3.195	-23.364
C	-97.655	4.301	-24.058
S	-96.785	2.16	-22.925
H	-95.733	5.134	-24.728
H	-98.305	5.066	-24.467
C	-96.258	4.34	-24.209
C	-95.622	3.268	-23.605
C	-104.612	2.349	-22.2
C	-103.777	3.483	-22.183
C	-103.992	1.087	-22.377
C	-102.383	3.341	-22.423
C	-101.776	2.066	-22.597
C	-101.537	4.475	-22.499
C	-102.631	0.935	-22.551
C	-102.108	-0.437	-22.749
N	-100.728	-0.53	-22.932
C	-99.832	0.547	-22.889
C	-102.065	5.846	-22.281
N	-103.417	5.926	-21.941
C	-104.288	4.832	-21.803
O	-101.363	6.844	-22.376
O	-105.411	5.026	-21.364
O	-102.827	-1.427	-22.743
O	-98.632	0.297	-22.895
C	-100.129	-1.865	-23.064
C	-103.98	7.243	-21.616
H	-99.524	-2.094	-22.183
H	-99.481	-1.888	-23.942
H	-100.942	-2.58	-23.162
H	-104.883	7.409	-22.207
H	-103.224	7.99	-21.846
H	-104.25	7.284	-20.558
H	-104.605	0.194	-22.413
H	-99.611	5.24	-22.8
C	-100.2	4.333	-22.775
C	-100.373	1.925	-22.827
C	-99.556	3.073	-22.979
C	-108.566	2.492	-22.497
C	-108.218	1.523	-21.574
S	-107.135	3.29	-23.113
H	-106.368	0.716	-20.682
H	-108.949	0.924	-21.043
C	-106.822	1.418	-21.374
C	-106.08	2.322	-22.107
C	-112.348	2.935	-23.511
C	-111.661	4.069	-23.898
S	-111.248	1.782	-22.775
H	-109.6	4.852	-23.794
H	-112.147	4.919	-24.363
C	-110.28	4.032	-23.591
C	-109.88	2.869	-22.963
C	-115.927	2.829	-24.929
C	-115.839	1.707	-24.109
S	-114.463	3.789	-24.743
H	-114.425	0.785	-22.698
H	-116.639	0.981	-24.022
C	-114.64	1.599	-23.382
C	-113.755	2.63	-23.648
C	-121.248	3.991	-28.712
C	-120.543	2.815	-28.387
C	-120.697	5.222	-28.275
C	-119.376	2.889	-27.579
C	-118.835	4.133	-27.149
C	-118.701	1.714	-27.165
C	-119.532	5.306	-27.54
C	-119.072	6.652	-27.125
N	-117.896	6.676	-26.374
C	-117.122	5.554	-26.046
C	-119.156	0.369	-27.601
N	-120.24	0.354	-28.481
C	-120.914	1.491	-28.963
O	-118.612	-0.661	-27.229
O	-121.754	1.348	-29.838
O	-119.669	7.677	-27.423
O	-116.027	5.743	-25.53
C	-117.342	7.98	-25.986
C	-120.679	-0.935	-29.029
H	-116.41	8.168	-26.526
H	-117.126	7.98	-24.916
H	-118.083	8.737	-26.233
H	-121.755	-1.048	-28.877
H	-120.13	-1.717	-28.51
H	-120.478	-0.974	-30.103
H	-121.222	6.145	-28.492
H	-117.125	0.855	-26.087
C	-117.6	1.791	-26.347
C	-117.656	4.205	-26.347
C	-117.04	3.019	-25.876
C	-124.959	4.054	-30.117
C	-124.204	4.992	-30.794
S	-123.965	3.191	-28.962
H	-122.112	5.694	-30.811
H	-124.61	5.622	-31.578
C	-122.851	5.024	-30.384
C	-122.536	4.092	-29.416
C	-128.831	3.815	-30.801
C	-128.431	2.652	-30.174
S	-127.466	4.902	-30.99
H	-126.562	1.764	-29.405
H	-129.111	1.833	-29.967
C	-127.05	2.615	-29.867
C	-126.364	3.749	-30.254
C	-132.664	4.119	-31.026
C	-132.181	5.225	-31.72
S	-131.31	3.084	-30.587
H	-130.258	6.058	-32.39
H	-132.83	5.99	-32.128
C	-130.783	5.264	-31.87
C	-130.148	4.192	-31.267
C	-139.137	3.273	-29.862
C	-138.302	4.407	-29.845
C	-138.517	2.01	-30.039
C	-136.909	4.265	-30.085
C	-136.301	2.99	-30.259
C	-136.063	5.399	-30.161
C	-137.157	1.859	-30.213
C	-136.633	0.487	-30.41
N	-135.253	0.393	-30.594
C	-134.357	1.471	-30.551
C	-136.59	6.77	-29.943
N	-137.942	6.85	-29.603
C	-138.813	5.756	-29.465
O	-135.888	7.767	-30.038
O	-139.936	5.95	-29.026
O	-137.352	-0.503	-30.404
O	-133.158	1.221	-30.557
C	-134.654	-0.941	-30.726
C	-138.506	8.166	-29.278
H	-134.049	-1.171	-29.845
H	-134.006	-0.964	-31.604
H	-135.468	-1.656	-30.824
H	-139.409	8.332	-29.869
H	-137.75	8.914	-29.508
H	-138.775	8.208	-28.22
H	-139.13	1.118	-30.075
H	-134.137	6.164	-30.461
C	-134.725	5.256	-30.437
C	-134.898	2.849	-30.489
C	-134.081	3.997	-30.641
C	-143.092	3.415	-30.159
C	-142.743	2.447	-29.236
S	-141.661	4.213	-30.775
H	-140.893	1.64	-28.344
H	-143.474	1.848	-28.705
C	-141.347	2.341	-29.036
C	-140.605	3.246	-29.769
C	-146.873	3.859	-31.173
C	-146.186	4.993	-31.559
S	-145.773	2.706	-30.437
H	-144.125	5.776	-31.456
H	-146.673	5.843	-32.025
C	-144.805	4.956	-31.253
C	-144.406	3.793	-30.625
C	-150.452	3.752	-32.591
C	-150.364	2.631	-31.771
S	-148.989	4.712	-32.405
H	-148.951	1.709	-30.36
H	-151.164	1.905	-31.684
C	-149.165	2.523	-31.044
C	-148.281	3.554	-31.309
C	-155.773	4.915	-36.374
C	-155.068	3.739	-36.049
C	-155.222	6.146	-35.937
C	-153.902	3.813	-35.241
C	-153.36	5.057	-34.811
C	-153.226	2.638	-34.827
C	-154.057	6.229	-35.202
C	-153.598	7.575	-34.786
N	-152.421	7.6	-34.035
C	-151.648	6.478	-33.707
C	-153.681	1.293	-35.263
N	-154.765	1.278	-36.143
C	-155.439	2.414	-36.624
O	-153.138	0.262	-34.891
O	-156.279	2.272	-37.499
O	-154.194	8.601	-35.084
O	-150.552	6.666	-33.192
C	-151.867	8.904	-33.648
C	-155.205	-0.011	-36.691
H	-150.936	9.092	-34.188
H	-151.651	8.904	-32.578
H	-152.608	9.66	-33.895
H	-156.28	-0.124	-36.539
H	-154.656	-0.793	-36.172
H	-155.003	-0.05	-37.764
H	-155.747	7.069	-36.153
H	-151.65	1.779	-33.749
C	-152.126	2.715	-34.009
C	-152.181	5.129	-34.008
C	-151.565	3.942	-33.538
C	-159.484	4.978	-37.778
C	-158.729	5.916	-38.456
S	-158.49	4.114	-36.624
H	-156.637	6.618	-38.473
H	-159.135	6.546	-39.24
C	-157.376	5.948	-38.046
C	-157.061	5.015	-37.078
C	-163.356	4.739	-38.463
C	-162.956	3.576	-37.836
S	-161.991	5.826	-38.652
H	-161.088	2.687	-37.067
H	-163.637	2.757	-37.629
C	-161.575	3.539	-37.529
C	-160.889	4.673	-37.916
H	9.027	0.365	-0.576
H	-164.366	4.95	-38.791
