442
NDITT_10
C	4.03	0.519	-0.126
C	4.627	1.709	-0.554
S	5.29	-0.651	0.26
H	6.641	2.547	-0.826
H	4.062	2.56	-0.902
C	6.033	1.703	-0.53
C	6.552	0.503	-0.069
C	-2.57	-0.379	-0.013
C	-1.743	0.773	0.022
C	-1.887	-1.625	-0.16
C	-0.323	0.638	0.036
C	0.322	-0.625	-0.041
C	0.521	1.767	0.165
C	-0.522	-1.755	-0.167
C	0.027	-3.117	-0.328
N	1.419	-3.201	-0.247
C	2.291	-2.125	-0.039
C	-0.033	3.125	0.328
N	-1.422	3.215	0.242
C	-2.297	2.141	0.025
O	0.664	4.136	0.501
O	-3.505	2.379	-0.172
O	-0.685	-4.119	-0.497
O	3.496	-2.386	0.144
C	2.039	-4.548	-0.312
C	-1.996	4.583	0.322
H	2.55	-4.764	0.628
H	2.769	-4.576	-1.123
H	1.229	-5.253	-0.488
H	-1.562	5.205	-0.464
H	-1.752	5.02	1.292
H	-3.071	4.485	0.192
H	-2.452	-2.534	-0.307
H	2.449	2.55	0.31
C	1.886	1.64	0.16
C	1.742	-0.758	-0.028
C	2.57	0.393	0.012
C	-6.552	-0.511	0.075
C	-6.024	-1.697	0.562
S	-5.297	0.644	-0.279
H	-4.046	-2.532	0.952
H	-6.627	-2.538	0.877
C	-4.618	-1.693	0.586
C	-4.03	-0.509	0.132
C	-10.468	-0.155	-0.161
C	-9.871	1.035	-0.589
S	-9.208	-1.325	0.225
H	-7.857	1.873	-0.861
H	-10.436	1.886	-0.937
C	-8.465	1.029	-0.565
C	-7.945	-0.171	-0.104
C	-17.068	-1.053	-0.048
C	-16.24	0.099	-0.013
C	-16.385	-2.299	-0.195
C	-14.821	-0.036	0.001
C	-14.176	-1.299	-0.076
C	-13.976	1.093	0.13
C	-15.02	-2.429	-0.203
C	-14.471	-3.791	-0.363
N	-13.079	-3.875	-0.282
C	-12.207	-2.799	-0.074
C	-14.53	2.451	0.293
N	-15.92	2.541	0.207
C	-16.795	1.467	-0.01
O	-13.834	3.462	0.466
O	-18.003	1.705	-0.207
O	-15.182	-4.793	-0.532
O	-11.002	-3.06	0.109
C	-12.458	-5.222	-0.347
C	-16.494	3.909	0.287
H	-11.947	-5.438	0.593
H	-11.729	-5.25	-1.158
H	-13.269	-5.927	-0.523
H	-16.06	4.531	-0.499
H	-16.25	4.346	1.257
H	-17.568	3.811	0.157
H	-16.95	-3.208	-0.342
H	-12.049	1.876	0.275
C	-12.612	0.966	0.125
C	-12.756	-1.432	-0.063
C	-11.928	-0.281	-0.024
C	-21.05	-1.185	0.04
C	-20.522	-2.371	0.527
S	-19.795	-0.03	-0.314
H	-18.543	-3.206	0.917
H	-21.124	-3.212	0.842
C	-19.116	-2.367	0.551
C	-18.527	-1.183	0.097
C	-24.966	-0.829	-0.196
C	-24.368	0.361	-0.624
S	-23.706	-1.999	0.19
H	-22.354	1.199	-0.896
H	-24.934	1.212	-0.972
C	-22.963	0.355	-0.6
C	-22.443	-0.845	-0.139
C	-31.566	-1.727	-0.083
C	-30.738	-0.575	-0.048
C	-30.883	-2.973	-0.23
C	-29.318	-0.71	-0.034
C	-28.674	-1.973	-0.111
C	-28.474	0.419	0.095
C	-29.518	-3.103	-0.238
C	-28.968	-4.465	-0.398
N	-27.576	-4.549	-0.317
C	-26.705	-3.473	-0.109
C	-29.028	1.777	0.258
N	-30.417	1.867	0.172
C	-31.293	0.793	-0.045
O	-28.331	2.788	0.431
O	-32.5	1.031	-0.242
O	-29.68	-5.467	-0.567
O	-25.5	-3.734	0.074
C	-26.956	-5.896	-0.382
C	-30.992	3.235	0.252
H	-26.445	-6.112	0.558
H	-26.227	-5.924	-1.193
H	-27.766	-6.601	-0.558
H	-30.557	3.857	-0.534
H	-30.748	3.672	1.222
H	-32.066	3.137	0.122
H	-31.447	-3.882	-0.377
H	-26.547	1.202	0.24
C	-27.109	0.292	0.09
C	-27.254	-2.106	-0.098
C	-26.426	-0.955	-0.059
C	-35.547	-1.859	0.005
C	-35.019	-3.045	0.492
S	-34.293	-0.704	-0.349
H	-33.041	-3.88	0.882
H	-35.622	-3.886	0.807
C	-33.613	-3.041	0.516
C	-33.025	-1.857	0.062
C	-39.463	-1.503	-0.231
C	-38.866	-0.313	-0.659
S	-38.203	-2.673	0.155
H	-36.852	0.525	-0.931
H	-39.431	0.538	-1.007
C	-37.461	-0.319	-0.635
C	-36.941	-1.519	-0.174
C	-46.063	-2.401	-0.118
C	-45.236	-1.249	-0.083
C	-45.38	-3.647	-0.265
C	-43.816	-1.384	-0.069
C	-43.171	-2.647	-0.146
C	-42.972	-0.255	0.06
C	-44.015	-3.777	-0.273
C	-43.466	-5.139	-0.433
N	-42.074	-5.223	-0.352
C	-41.202	-4.147	-0.144
C	-43.526	1.103	0.223
N	-44.915	1.193	0.137
C	-45.791	0.119	-0.08
O	-42.829	2.114	0.396
O	-46.998	0.357	-0.277
O	-44.178	-6.141	-0.602
O	-39.997	-4.408	0.039
C	-41.454	-6.57	-0.417
C	-45.489	2.561	0.217
H	-40.943	-6.786	0.523
H	-40.724	-6.598	-1.229
H	-42.264	-7.275	-0.593
H	-45.055	3.183	-0.569
H	-45.245	2.998	1.187
H	-46.564	2.463	0.087
H	-45.945	-4.556	-0.412
H	-41.045	0.528	0.205
C	-41.607	-0.382	0.055
C	-41.751	-2.78	-0.133
C	-40.923	-1.629	-0.094
C	-50.045	-2.533	-0.03
C	-49.517	-3.719	0.457
S	-48.79	-1.378	-0.384
H	-47.539	-4.554	0.847
H	-50.12	-4.56	0.772
C	-48.111	-3.715	0.481
C	-47.523	-2.531	0.027
C	-53.961	-2.177	-0.266
C	-53.364	-0.987	-0.694
S	-52.701	-3.347	0.12
H	-51.35	-0.149	-0.966
H	-53.929	-0.136	-1.042
C	-51.958	-0.993	-0.67
C	-51.438	-2.193	-0.209
C	-60.561	-3.075	-0.153
C	-59.733	-1.923	-0.118
C	-59.878	-4.321	-0.3
C	-58.314	-2.058	-0.105
C	-57.669	-3.321	-0.181
C	-57.469	-0.929	0.025
C	-58.513	-4.451	-0.308
C	-57.964	-5.813	-0.468
N	-56.572	-5.897	-0.387
C	-55.7	-4.821	-0.179
C	-58.024	0.429	0.188
N	-59.413	0.519	0.102
C	-60.288	-0.555	-0.115
O	-57.327	1.44	0.361
O	-61.496	-0.317	-0.312
O	-58.676	-6.815	-0.637
O	-54.495	-5.082	0.004
C	-55.952	-7.244	-0.452
C	-59.987	1.887	0.181
H	-55.441	-7.46	0.488
H	-55.222	-7.272	-1.264
H	-56.762	-7.949	-0.628
H	-59.553	2.509	-0.604
H	-59.743	2.324	1.152
H	-61.062	1.789	0.052
H	-60.443	-5.23	-0.447
H	-55.542	-0.146	0.17
C	-56.105	-1.056	0.02
C	-56.249	-3.454	-0.169
C	-55.421	-2.303	-0.129
C	-64.543	-3.207	-0.065
C	-64.015	-4.393	0.422
S	-63.288	-2.052	-0.419
H	-62.036	-5.228	0.812
H	-64.617	-5.234	0.737
C	-62.609	-4.389	0.446
C	-62.02	-3.204	-0.008
C	-68.459	-2.851	-0.302
C	-67.861	-1.661	-0.729
S	-67.199	-4.021	0.085
H	-65.848	-0.823	-1.001
H	-68.427	-0.81	-1.077
C	-66.456	-1.667	-0.705
C	-65.936	-2.867	-0.244
C	-75.059	-3.749	-0.188
C	-74.231	-2.597	-0.153
C	-74.376	-4.995	-0.335
C	-72.811	-2.732	-0.14
C	-72.167	-3.995	-0.216
C	-71.967	-1.603	-0.01
C	-73.011	-5.125	-0.343
C	-72.461	-6.487	-0.503
N	-71.069	-6.571	-0.422
C	-70.198	-5.495	-0.214
C	-72.521	-0.245	0.153
N	-73.911	-0.155	0.067
C	-74.786	-1.229	-0.15
O	-71.825	0.766	0.326
O	-75.993	-0.99	-0.347
O	-73.173	-7.489	-0.672
O	-68.993	-5.756	-0.031
C	-70.449	-7.918	-0.487
C	-74.485	1.213	0.146
H	-69.938	-8.134	0.453
H	-69.72	-7.946	-1.299
H	-71.259	-8.623	-0.663
H	-74.05	1.835	-0.639
H	-74.241	1.65	1.117
H	-75.559	1.115	0.017
H	-74.941	-5.904	-0.482
H	-70.04	-0.82	0.135
C	-70.602	-1.73	-0.015
C	-70.747	-4.128	-0.204
C	-69.919	-2.977	-0.164
C	-79.041	-3.881	-0.1
C	-78.512	-5.067	0.387
S	-77.786	-2.726	-0.454
H	-76.534	-5.902	0.777
H	-79.115	-5.908	0.702
C	-77.107	-5.063	0.411
C	-76.518	-3.878	-0.043
C	-82.956	-3.525	-0.337
C	-82.359	-2.335	-0.764
S	-81.696	-4.695	0.05
H	-80.345	-1.497	-1.036
H	-82.925	-1.484	-1.112
C	-80.954	-2.341	-0.74
C	-80.434	-3.541	-0.279
C	-89.556	-4.423	-0.223
C	-88.729	-3.271	-0.188
C	-88.873	-5.669	-0.37
C	-87.309	-3.406	-0.175
C	-86.665	-4.669	-0.251
C	-86.465	-2.277	-0.045
C	-87.508	-5.799	-0.378
C	-86.959	-7.161	-0.538
N	-85.567	-7.245	-0.457
C	-84.695	-6.169	-0.249
C	-87.019	-0.919	0.118
N	-88.408	-0.829	0.032
C	-89.284	-1.903	-0.185
O	-86.322	0.092	0.291
O	-90.491	-1.664	-0.382
O	-87.671	-8.163	-0.707
O	-83.49	-6.43	-0.066
C	-84.947	-8.592	-0.522
C	-88.982	0.539	0.111
H	-84.436	-8.808	0.418
H	-84.217	-8.62	-1.334
H	-85.757	-9.297	-0.698
H	-88.548	1.161	-0.674
H	-88.739	0.976	1.082
H	-90.057	0.441	-0.018
H	-89.438	-6.578	-0.517
H	-84.538	-1.494	0.1
C	-85.1	-2.404	-0.05
C	-85.244	-4.802	-0.239
C	-84.416	-3.651	-0.199
C	-93.538	-4.555	-0.135
C	-93.01	-5.741	0.352
S	-92.283	-3.4	-0.489
H	-91.032	-6.576	0.742
H	-93.613	-6.582	0.667
C	-91.604	-5.737	0.376
C	-91.016	-4.552	-0.078
C	-97.454	-4.199	-0.372
C	-96.857	-3.009	-0.799
S	-96.194	-5.369	0.015
H	-94.843	-2.171	-1.071
H	-97.422	-2.158	-1.147
C	-95.451	-3.015	-0.775
C	-94.931	-4.215	-0.314
C	-104.054	-5.097	-0.258
C	-103.227	-3.945	-0.223
C	-103.371	-6.343	-0.405
C	-101.807	-4.08	-0.21
C	-101.162	-5.343	-0.286
C	-100.963	-2.951	-0.08
C	-102.006	-6.473	-0.413
C	-101.457	-7.835	-0.573
N	-100.065	-7.919	-0.492
C	-99.193	-6.843	-0.284
C	-101.517	-1.593	0.083
N	-102.906	-1.503	-0.003
C	-103.781	-2.577	-0.22
O	-100.82	-0.582	0.256
O	-104.989	-2.338	-0.417
O	-102.169	-8.837	-0.742
O	-97.988	-7.104	-0.101
C	-99.445	-9.266	-0.557
C	-103.48	-0.135	0.076
H	-98.934	-9.482	0.383
H	-98.715	-9.293	-1.369
H	-100.255	-9.971	-0.733
H	-103.046	0.487	-0.709
H	-103.236	0.302	1.047
H	-104.555	-0.233	-0.053
H	-103.936	-7.252	-0.552
H	-99.035	-2.168	0.065
C	-99.598	-3.078	-0.085
C	-99.742	-5.476	-0.274
C	-98.914	-4.325	-0.234
C	-108.036	-5.229	-0.17
C	-107.508	-6.415	0.317
S	-106.781	-4.074	-0.524
H	-105.53	-7.25	0.707
H	-108.111	-7.256	0.632
C	-106.102	-6.411	0.341
C	-105.514	-5.226	-0.113
C	-111.952	-4.873	-0.407
C	-111.355	-3.683	-0.834
S	-110.692	-6.043	-0.02
H	-109.341	-2.845	-1.106
H	-111.92	-2.832	-1.182
C	-109.949	-3.689	-0.81
C	-109.429	-4.889	-0.349
C	-118.552	-5.771	-0.293
C	-117.724	-4.619	-0.258
C	-117.869	-7.017	-0.44
C	-116.305	-4.754	-0.245
C	-115.66	-6.017	-0.321
C	-115.46	-3.625	-0.115
C	-116.504	-7.147	-0.448
C	-115.955	-8.509	-0.609
N	-114.563	-8.593	-0.527
C	-113.691	-7.517	-0.319
C	-116.014	-2.267	0.048
N	-117.404	-2.177	-0.038
C	-118.279	-3.251	-0.255
O	-115.318	-1.256	0.221
O	-119.486	-3.012	-0.452
O	-116.666	-9.511	-0.777
O	-112.486	-7.778	-0.136
C	-113.942	-9.94	-0.592
C	-117.978	-0.809	0.041
H	-113.431	-10.156	0.348
H	-113.213	-9.967	-1.404
H	-114.753	-10.645	-0.768
H	-117.543	-0.187	-0.744
H	-117.734	-0.372	1.012
H	-119.052	-0.907	-0.088
H	-118.434	-7.926	-0.587
H	-113.533	-2.842	0.03
C	-114.095	-3.752	-0.12
C	-114.24	-6.15	-0.309
C	-113.412	-4.999	-0.269
C	-122.534	-5.903	-0.205
C	-122.006	-7.089	0.282
S	-121.279	-4.748	-0.559
H	-120.027	-7.924	0.672
H	-122.608	-7.93	0.597
C	-120.6	-7.085	0.306
C	-120.011	-5.9	-0.148
C	-126.449	-5.547	-0.442
C	-125.852	-4.357	-0.869
S	-125.19	-6.717	-0.055
H	-123.838	-3.519	-1.141
H	-126.418	-3.506	-1.217
C	-124.447	-4.363	-0.845
C	-123.927	-5.563	-0.384
C	-133.05	-6.445	-0.328
C	-132.222	-5.293	-0.293
C	-132.367	-7.691	-0.475
C	-130.802	-5.428	-0.28
C	-130.158	-6.69	-0.356
C	-129.958	-4.299	-0.15
C	-131.002	-7.821	-0.483
C	-130.452	-9.183	-0.644
N	-129.06	-9.267	-0.562
C	-128.189	-8.191	-0.354
C	-130.512	-2.941	0.013
N	-131.901	-2.851	-0.073
C	-132.777	-3.925	-0.29
O	-129.815	-1.93	0.186
O	-133.984	-3.686	-0.488
O	-131.164	-10.185	-0.812
O	-126.984	-8.452	-0.171
C	-128.44	-10.614	-0.627
C	-132.476	-1.483	0.006
H	-127.929	-10.83	0.313
H	-127.711	-10.641	-1.439
H	-129.25	-11.319	-0.803
H	-132.041	-0.861	-0.779
H	-132.232	-1.046	0.977
H	-133.55	-1.581	-0.123
H	-132.931	-8.6	-0.622
H	-128.031	-3.516	-0.005
C	-128.593	-4.426	-0.155
C	-128.738	-6.824	-0.344
C	-127.909	-5.672	-0.304
C	-137.031	-6.577	-0.24
C	-136.503	-7.763	0.247
S	-135.777	-5.422	-0.594
H	-134.525	-8.598	0.637
H	-137.106	-8.603	0.562
C	-135.097	-7.759	0.271
C	-134.509	-6.574	-0.183
H	7.608	0.308	0.069
H	-138.088	-6.392	-0.383
