372
NDIT_10
C	1.529	-0.346	0.419
C	2.473	-1.361	0.172
C	2.001	0.988	0.539
C	3.859	-1.035	0.115
C	4.314	0.306	0.27
C	4.839	-2.038	-0.089
C	3.339	1.313	0.471
C	3.726	2.738	0.641
N	5.099	2.995	0.66
C	6.111	2.027	0.543
C	4.451	-3.46	-0.247
N	3.083	-3.729	-0.246
C	2.059	-2.77	-0.124
O	5.267	-4.361	-0.386
O	0.896	-3.107	-0.27
O	2.901	3.629	0.775
O	7.27	2.36	0.731
C	5.549	4.369	0.918
C	2.7	-5.13	-0.471
H	6.035	4.428	1.895
H	6.273	4.663	0.155
H	4.673	5.013	0.89
H	2.962	-5.431	-1.489
H	3.245	-5.766	0.228
H	1.626	-5.213	-0.324
H	1.295	1.79	0.723
H	6.883	-2.504	-0.376
C	6.174	-1.708	-0.177
C	5.699	0.63	0.211
C	6.644	-0.375	-0.055
C	-2.42	-0.235	0.599
C	-1.965	-1.204	1.488
S	-1.049	0.499	-0.201
H	-0.055	-2.069	2.157
H	-2.632	-1.773	2.126
C	-0.568	-1.37	1.508
C	0.081	-0.548	0.611
C	-8.967	-0.033	0.758
C	-8.024	-1.048	0.511
C	-8.495	1.301	0.878
C	-6.638	-0.722	0.454
C	-6.183	0.619	0.608
C	-5.658	-1.725	0.25
C	-7.158	1.626	0.81
C	-6.77	3.051	0.98
N	-5.398	3.308	0.999
C	-4.386	2.34	0.882
C	-6.046	-3.148	0.092
N	-7.414	-3.417	0.093
C	-8.438	-2.457	0.215
O	-5.23	-4.048	-0.047
O	-9.601	-2.794	0.069
O	-7.596	3.942	1.113
O	-3.227	2.673	1.069
C	-4.948	4.682	1.256
C	-7.797	-4.817	-0.133
H	-4.462	4.741	2.234
H	-4.224	4.976	0.494
H	-5.823	5.326	1.229
H	-7.534	-5.119	-1.151
H	-7.251	-5.453	0.567
H	-8.87	-4.9	0.015
H	-9.201	2.103	1.062
H	-3.613	-2.191	-0.037
C	-4.323	-1.395	0.161
C	-4.797	0.943	0.549
C	-3.853	-0.062	0.284
C	-12.917	0.077	0.938
C	-12.462	-0.892	1.827
S	-11.546	0.812	0.138
H	-10.551	-1.756	2.496
H	-13.129	-1.46	2.465
C	-11.065	-1.057	1.847
C	-10.416	-0.235	0.95
C	-19.464	0.28	1.096
C	-18.52	-0.735	0.85
C	-18.992	1.614	1.217
C	-17.135	-0.409	0.793
C	-16.679	0.932	0.947
C	-16.155	-1.412	0.588
C	-17.655	1.939	1.149
C	-17.267	3.364	1.318
N	-15.894	3.621	1.337
C	-14.883	2.653	1.221
C	-16.543	-2.835	0.431
N	-17.91	-3.104	0.432
C	-18.934	-2.144	0.553
O	-15.727	-3.735	0.291
O	-20.098	-2.481	0.407
O	-18.093	4.255	1.452
O	-13.723	2.986	1.408
C	-15.444	4.995	1.595
C	-18.293	-4.504	0.206
H	-14.958	5.053	2.572
H	-14.72	5.289	0.833
H	-16.32	5.639	1.568
H	-18.031	-4.806	-0.812
H	-17.748	-5.14	0.905
H	-19.367	-4.587	0.353
H	-19.698	2.416	1.401
H	-14.11	-1.878	0.301
C	-14.819	-1.082	0.5
C	-15.294	1.256	0.888
C	-14.349	0.251	0.623
C	-23.413	0.39	1.277
C	-22.958	-0.579	2.166
S	-22.042	1.125	0.476
H	-21.048	-1.443	2.834
H	-23.626	-1.147	2.803
C	-21.562	-0.745	2.185
C	-20.912	0.078	1.289
C	-29.961	0.593	1.435
C	-29.017	-0.423	1.188
C	-29.489	1.926	1.555
C	-27.631	-0.096	1.131
C	-27.176	1.245	1.286
C	-26.651	-1.099	0.927
C	-28.151	2.252	1.487
C	-27.764	3.676	1.657
N	-26.391	3.934	1.676
C	-25.379	2.966	1.559
C	-27.039	-2.522	0.769
N	-28.407	-2.791	0.77
C	-29.431	-1.831	0.892
O	-26.223	-3.422	0.63
O	-30.594	-2.168	0.746
O	-28.589	4.567	1.791
O	-24.22	3.299	1.747
C	-25.941	5.308	1.934
C	-28.79	-4.191	0.545
H	-25.455	5.366	2.911
H	-25.217	5.602	1.171
H	-26.817	5.952	1.906
H	-28.528	-4.493	-0.473
H	-28.245	-4.827	1.244
H	-29.864	-4.274	0.692
H	-30.194	2.729	1.739
H	-24.607	-1.565	0.64
C	-25.316	-0.77	0.839
C	-25.791	1.569	1.227
C	-24.846	0.564	0.961
C	-33.91	0.703	1.615
C	-33.455	-0.266	2.504
S	-32.539	1.438	0.815
H	-31.545	-1.13	3.173
H	-34.122	-0.834	3.142
C	-32.058	-0.432	2.524
C	-31.409	0.391	1.627
C	-40.457	0.905	1.774
C	-39.514	-0.11	1.527
C	-39.985	2.239	1.894
C	-38.128	0.217	1.47
C	-37.673	1.557	1.624
C	-37.148	-0.787	1.266
C	-38.648	2.565	1.826
C	-38.26	3.989	1.996
N	-36.888	4.247	2.015
C	-35.876	3.279	1.898
C	-37.536	-2.209	1.108
N	-38.903	-2.478	1.109
C	-39.928	-1.518	1.231
O	-36.72	-3.109	0.969
O	-41.091	-1.856	1.085
O	-39.086	4.88	2.129
O	-34.717	3.612	2.085
C	-36.437	5.621	2.272
C	-39.287	-3.878	0.883
H	-35.952	5.679	3.25
H	-35.713	5.914	1.51
H	-37.313	6.264	2.245
H	-39.024	-4.18	-0.135
H	-38.741	-4.514	1.583
H	-40.36	-3.961	1.031
H	-40.691	3.042	2.078
H	-35.103	-1.252	0.979
C	-35.813	-0.457	1.177
C	-36.287	1.882	1.565
C	-35.343	0.877	1.3
C	-44.407	1.016	1.954
C	-43.951	0.047	2.843
S	-43.036	1.751	1.154
H	-42.041	-0.817	3.512
H	-44.619	-0.521	3.481
C	-42.555	-0.119	2.863
C	-41.906	0.704	1.966
C	-50.954	1.218	2.112
C	-50.01	0.203	1.866
C	-50.482	2.552	2.233
C	-48.625	0.529	1.809
C	-48.169	1.87	1.963
C	-47.645	-0.474	1.604
C	-49.145	2.877	2.165
C	-48.757	4.302	2.334
N	-47.384	4.559	2.353
C	-46.372	3.591	2.237
C	-48.032	-1.896	1.447
N	-49.4	-2.165	1.448
C	-50.424	-1.205	1.57
O	-47.217	-2.796	1.307
O	-51.588	-1.543	1.423
O	-49.583	5.193	2.468
O	-45.213	3.924	2.424
C	-46.934	5.933	2.611
C	-49.783	-3.565	1.222
H	-46.448	5.992	3.588
H	-46.21	6.227	1.849
H	-47.81	6.577	2.584
H	-49.521	-3.867	0.204
H	-49.238	-4.201	1.921
H	-50.857	-3.648	1.369
H	-51.188	3.355	2.417
H	-45.6	-0.939	1.317
C	-46.309	-0.144	1.516
C	-46.784	2.195	1.904
C	-45.839	1.189	1.639
C	-54.903	1.329	2.293
C	-54.448	0.36	3.182
S	-53.532	2.064	1.492
H	-52.538	-0.504	3.85
H	-55.116	-0.208	3.819
C	-53.051	0.194	3.201
C	-52.402	1.017	2.305
C	-61.45	1.531	2.451
C	-60.507	0.516	2.204
C	-60.978	2.865	2.571
C	-59.121	0.842	2.147
C	-58.666	2.183	2.302
C	-58.141	-0.161	1.943
C	-59.641	3.19	2.503
C	-59.253	4.615	2.673
N	-57.881	4.872	2.692
C	-56.869	3.904	2.575
C	-58.529	-1.583	1.785
N	-59.897	-1.852	1.786
C	-60.921	-0.892	1.908
O	-57.713	-2.484	1.646
O	-62.084	-1.23	1.762
O	-60.079	5.506	2.807
O	-55.71	4.237	2.763
C	-57.431	6.246	2.95
C	-60.28	-3.253	1.561
H	-56.945	6.305	3.927
H	-56.707	6.54	2.187
H	-58.307	6.89	2.922
H	-60.018	-3.554	0.543
H	-59.735	-3.889	2.26
H	-61.353	-3.335	1.708
H	-61.684	3.667	2.755
H	-56.097	-0.626	1.656
C	-56.806	0.169	1.855
C	-57.281	2.508	2.243
C	-56.336	1.502	1.977
C	-65.4	1.642	2.632
C	-64.945	0.673	3.52
S	-64.029	2.377	1.831
H	-63.034	-0.192	4.189
H	-65.612	0.104	4.158
C	-63.548	0.507	3.54
C	-62.899	1.329	2.643
C	-71.947	1.844	2.79
C	-71.004	0.829	2.543
C	-71.475	3.178	2.91
C	-69.618	1.155	2.486
C	-69.163	2.496	2.64
C	-68.638	0.152	2.282
C	-70.138	3.503	2.842
C	-69.75	4.928	3.012
N	-68.377	5.185	3.031
C	-67.366	4.217	2.914
C	-69.026	-1.27	2.124
N	-70.393	-1.539	2.125
C	-71.417	-0.58	2.247
O	-68.21	-2.171	1.985
O	-72.581	-0.917	2.101
O	-70.576	5.819	3.146
O	-66.206	4.55	3.101
C	-67.927	6.559	3.288
C	-70.776	-2.94	1.899
H	-67.441	6.618	4.266
H	-67.203	6.853	2.526
H	-68.803	7.203	3.261
H	-70.514	-3.241	0.881
H	-70.231	-3.576	2.599
H	-71.85	-3.023	2.047
H	-72.181	3.98	3.094
H	-66.593	-0.313	1.995
C	-67.303	0.482	2.194
C	-67.777	2.82	2.581
C	-66.832	1.815	2.316
C	-75.896	1.955	2.97
C	-75.441	0.986	3.859
S	-74.526	2.689	2.17
H	-73.531	0.121	4.528
H	-76.109	0.417	4.497
C	-74.045	0.82	3.879
C	-73.395	1.642	2.982
C	-82.444	2.157	3.128
C	-81.5	1.142	2.882
C	-81.972	3.491	3.249
C	-80.114	1.468	2.825
C	-79.659	2.809	2.979
C	-79.135	0.465	2.621
C	-80.634	3.816	3.181
C	-80.247	5.241	3.35
N	-78.874	5.498	3.369
C	-77.862	4.53	3.253
C	-79.522	-0.958	2.463
N	-80.89	-1.227	2.464
C	-81.914	-0.267	2.586
O	-78.707	-1.858	2.323
O	-83.077	-0.604	2.439
O	-81.073	6.132	3.484
O	-76.703	4.863	3.44
C	-78.424	6.872	3.627
C	-81.273	-2.627	2.238
H	-77.938	6.931	4.604
H	-77.7	7.166	2.865
H	-79.3	7.516	3.6
H	-81.011	-2.929	1.22
H	-80.728	-3.263	2.937
H	-82.347	-2.71	2.385
H	-82.678	4.293	3.433
H	-77.09	-0.001	2.333
C	-77.799	0.795	2.532
C	-78.274	3.133	2.92
C	-77.329	2.128	2.655
C	-86.393	2.267	3.309
C	-85.938	1.298	4.198
S	-85.022	3.002	2.508
H	-84.028	0.434	4.866
H	-86.605	0.73	4.836
C	-84.541	1.133	4.217
C	-83.892	1.955	3.321
C	-92.94	2.47	3.467
C	-91.997	1.455	3.22
C	-92.468	3.804	3.588
C	-90.611	1.781	3.163
C	-90.156	3.122	3.318
C	-89.631	0.778	2.959
C	-91.131	4.129	3.519
C	-90.743	5.554	3.689
N	-89.371	5.811	3.708
C	-88.359	4.843	3.591
C	-90.019	-0.645	2.801
N	-91.387	-0.914	2.802
C	-92.411	0.046	2.924
O	-89.203	-1.545	2.662
O	-93.574	-0.291	2.778
O	-91.569	6.445	3.823
O	-87.2	5.176	3.779
C	-88.921	7.185	3.966
C	-91.77	-2.314	2.577
H	-88.435	7.243	4.943
H	-88.197	7.479	3.204
H	-89.796	7.829	3.938
H	-91.507	-2.616	1.559
H	-91.225	-2.95	3.276
H	-92.843	-2.397	2.724
H	-93.174	4.606	3.771
H	-87.586	0.312	2.672
C	-88.296	1.108	2.871
C	-88.77	3.446	3.259
C	-87.826	2.441	2.993
C	-96.89	2.58	3.648
C	-96.435	1.611	4.536
S	-95.519	3.315	2.847
H	-94.524	0.747	5.205
H	-97.102	1.043	5.174
C	-95.038	1.445	4.556
C	-94.389	2.268	3.659
H	7.695	-0.14	-0.162
H	-97.927	2.838	3.478
