502
NDTI-b12_2_8x2_FU_FU_10
C	6.051	-1.204	0.0
C	6.729	-2.406	0.0
O	6.962	-0.174	0.0
H	6.277	-3.388	0.0
H	8.94	-2.794	0.0
C	8.111	-2.102	0.0
C	8.208	-0.727	0.0
C	-4.661	0.854	-0.0
C	-3.594	1.718	0.0
S	-4.181	-0.854	-0.001
C	-2.495	-0.381	-0.0
C	-2.335	1.048	-0.0
C	-1.029	1.582	0.0
C	0.091	0.712	0.0
C	-0.087	-0.713	-0.0
C	-1.406	-1.242	-0.0
C	1.409	1.243	-0.0
C	2.497	0.381	-0.0
C	2.337	-1.05	0.0
C	1.031	-1.585	-0.0
C	0.829	-3.052	0.0
N	-0.501	-3.512	-0.0
C	-1.628	-2.696	-0.0
C	-0.822	3.046	0.001
N	0.503	3.51	0.0
C	1.636	2.699	-0.0
O	1.751	-3.861	0.0
O	-2.754	-3.19	0.0
O	-1.733	3.868	-0.0
O	2.768	3.177	-0.0
H	3.684	-2.794	0.0
H	-3.679	2.794	0.0
C	-0.748	-4.958	0.0
C	0.68	4.967	-0.0
H	0.216	-5.459	0.0
H	-1.326	-5.233	-0.886
H	-1.326	-5.233	0.886
H	0.206	5.396	0.886
H	1.748	5.17	-0.001
H	0.205	5.396	-0.885
S	4.183	0.854	-0.0
C	3.597	-1.718	0.0
C	4.664	-0.854	0.0
C	-8.206	0.727	0.0
C	-8.109	2.102	0.001
O	-6.96	0.174	-0.0
H	-8.938	2.795	0.001
H	-6.274	3.388	0.001
C	-6.726	2.406	0.001
C	-6.049	1.204	0.0
C	-11.475	-0.653	0.0
C	-10.798	-1.855	0.0
O	-10.564	0.378	0.0
H	-11.25	-2.836	0.0
H	-8.586	-2.243	0.0
C	-9.415	-1.55	0.0
C	-9.318	-0.176	0.0
C	-22.188	1.405	0.0
C	-21.12	2.269	0.0
S	-21.708	-0.303	-0.001
C	-20.021	0.17	-0.0
C	-19.861	1.599	0.0
C	-18.556	2.133	0.0
C	-17.436	1.263	0.0
C	-17.614	-0.162	-0.0
C	-18.933	-0.69	-0.0
C	-16.118	1.794	-0.0
C	-15.03	0.932	0.0
C	-15.19	-0.498	0.0
C	-16.495	-1.034	0.0
C	-16.698	-2.501	0.0
N	-18.028	-2.96	-0.0
C	-19.154	-2.145	-0.0
C	-18.349	3.597	0.001
N	-17.024	4.061	0.0
C	-15.891	3.25	-0.0
O	-15.775	-3.31	0.0
O	-20.28	-2.639	0.0
O	-19.259	4.42	-0.0
O	-14.758	3.729	-0.0
H	-13.842	-2.242	0.0
H	-21.206	3.345	0.0
C	-18.275	-4.407	0.0
C	-16.847	5.518	-0.0
H	-17.31	-4.908	0.0
H	-18.853	-4.682	-0.885
H	-18.853	-4.682	0.886
H	-17.321	5.947	0.886
H	-15.779	5.722	-0.001
H	-17.322	5.947	-0.885
S	-13.343	1.405	-0.0
C	-13.93	-1.167	0.0
C	-12.863	-0.302	0.0
C	-25.732	1.279	0.0
C	-25.635	2.653	0.001
O	-24.486	0.725	0.0
H	-26.464	3.346	0.001
H	-23.8	3.939	0.001
C	-24.253	2.958	0.001
C	-23.575	1.756	0.0
C	-29.002	-0.101	0.0
C	-28.324	-1.303	0.0
O	-28.091	0.929	0.0
H	-28.776	-2.285	0.0
H	-26.113	-1.692	0.0
C	-26.941	-0.999	0.0
C	-26.845	0.376	0.0
C	-39.714	1.957	0.0
C	-38.647	2.821	0.0
S	-39.234	0.248	-0.001
C	-37.548	0.721	-0.0
C	-37.388	2.151	0.0
C	-36.082	2.684	0.0
C	-34.962	1.814	0.0
C	-35.14	0.39	0.0
C	-36.459	-0.139	-0.0
C	-33.644	2.345	0.0
C	-32.556	1.483	0.0
C	-32.716	0.053	0.0
C	-34.022	-0.482	0.0
C	-34.224	-1.949	0.0
N	-35.554	-2.409	-0.0
C	-36.681	-1.594	-0.0
C	-35.875	4.148	0.001
N	-34.55	4.613	0.0
C	-33.417	3.801	-0.0
O	-33.302	-2.759	0.0
O	-37.807	-2.088	0.0
O	-36.786	4.971	-0.0
O	-32.285	4.28	-0.0
H	-31.369	-1.691	0.0
H	-38.732	3.897	0.0
C	-35.801	-3.856	0.0
C	-34.373	6.069	-0.0
H	-34.837	-4.356	0.0
H	-36.379	-4.13	-0.885
H	-36.379	-4.13	0.886
H	-34.847	6.499	0.886
H	-33.305	6.273	-0.001
H	-34.848	6.499	-0.885
S	-30.87	1.956	-0.0
C	-31.456	-0.615	0.0
C	-30.389	0.249	0.0
C	-43.259	1.83	0.0
C	-43.162	3.205	0.001
O	-42.013	1.277	0.0
H	-43.991	3.897	0.001
H	-41.327	4.491	0.001
C	-41.779	3.509	0.001
C	-41.102	2.307	0.0
C	-46.528	0.45	0.0
C	-45.851	-0.752	0.0
O	-45.617	1.48	0.0
H	-46.303	-1.734	0.0
H	-43.639	-1.141	0.0
C	-44.468	-0.448	0.0
C	-44.371	0.927	0.0
C	-57.241	2.508	0.0
C	-56.173	3.372	0.0
S	-56.761	0.8	-0.0
C	-55.074	1.273	-0.0
C	-54.914	2.702	0.0
C	-53.609	3.235	0.0
C	-52.489	2.366	0.0
C	-52.667	0.941	0.0
C	-53.986	0.412	-0.0
C	-51.171	2.897	0.0
C	-50.083	2.035	0.0
C	-50.243	0.604	0.0
C	-51.548	0.069	0.0
C	-51.751	-1.398	0.0
N	-53.081	-1.858	0.0
C	-54.207	-1.042	-0.0
C	-53.402	4.7	0.001
N	-52.077	5.164	0.0
C	-50.944	4.353	-0.0
O	-50.828	-2.207	0.0
O	-55.333	-1.536	0.0
O	-54.312	5.522	-0.0
O	-49.811	4.831	0.0
H	-48.895	-1.14	0.0
H	-56.259	4.448	0.0
C	-53.328	-3.304	0.0
C	-51.9	6.621	-0.0
H	-52.363	-3.805	0.0
H	-53.906	-3.579	-0.885
H	-53.906	-3.579	0.886
H	-52.374	7.05	0.886
H	-50.832	6.824	-0.001
H	-52.375	7.05	-0.885
S	-48.396	2.508	-0.0
C	-48.983	-0.064	0.0
C	-47.916	0.8	0.0
C	-60.785	2.381	0.0
C	-60.688	3.756	0.001
O	-59.539	1.828	0.0
H	-61.517	4.449	0.001
H	-58.853	5.042	0.001
C	-59.306	4.06	0.001
C	-58.628	2.858	0.0
C	-64.055	1.001	0.0
C	-63.377	-0.201	0.0
O	-63.144	2.032	0.0
H	-63.829	-1.182	0.0
H	-61.166	-0.589	0.0
C	-61.994	0.103	0.0
C	-61.898	1.478	0.0
C	-74.767	3.059	0.0
C	-73.7	3.923	0.0
S	-74.287	1.351	-0.0
C	-72.601	1.824	-0.0
C	-72.441	3.253	0.0
C	-71.135	3.787	0.0
C	-70.015	2.917	0.0
C	-70.193	1.492	0.0
C	-71.512	0.964	-0.0
C	-68.697	3.448	0.0
C	-67.609	2.586	0.0
C	-67.769	1.156	0.0
C	-69.075	0.62	0.0
C	-69.277	-0.847	0.0
N	-70.607	-1.306	0.0
C	-71.734	-0.491	-0.0
C	-70.928	5.251	0.001
N	-69.603	5.715	0.0
C	-68.47	4.904	-0.0
O	-68.355	-1.656	0.0
O	-72.86	-0.985	0.0
O	-71.839	6.074	-0.0
O	-67.338	5.382	0.0
H	-66.422	-0.588	0.0
H	-73.785	4.999	0.001
C	-70.854	-2.753	0.0
C	-69.426	7.172	0.0
H	-69.89	-3.254	0.0
H	-71.432	-3.028	-0.885
H	-71.432	-3.028	0.886
H	-69.9	7.601	0.886
H	-68.358	7.376	-0.001
H	-69.901	7.601	-0.885
S	-65.923	3.059	-0.0
C	-66.509	0.487	0.0
C	-65.442	1.352	0.0
C	-78.312	2.932	0.0
C	-78.215	4.307	0.001
O	-77.066	2.379	0.0
H	-79.044	5.0	0.001
H	-76.38	5.593	0.001
C	-76.832	4.612	0.001
C	-76.155	3.409	0.0
C	-81.581	1.553	0.0
C	-80.904	0.351	0.0
O	-80.67	2.583	0.0
H	-81.356	-0.631	0.0
H	-78.692	-0.038	0.0
C	-79.521	0.655	0.0
C	-79.424	2.03	0.0
C	-92.294	3.611	0.0
C	-91.226	4.475	0.0
S	-91.814	1.902	-0.0
C	-90.127	2.375	-0.0
C	-89.967	3.805	0.0
C	-88.662	4.338	0.0
C	-87.542	3.468	0.0
C	-87.72	2.044	0.0
C	-89.039	1.515	-0.0
C	-86.224	3.999	0.0
C	-85.136	3.137	0.0
C	-85.296	1.707	0.0
C	-86.601	1.172	0.0
C	-86.804	-0.296	0.0
N	-88.134	-0.755	0.0
C	-89.26	0.06	-0.0
C	-88.455	5.802	0.001
N	-87.13	6.267	0.0
C	-85.997	5.455	-0.0
O	-85.881	-1.105	0.0
O	-90.386	-0.434	0.0
O	-89.365	6.625	-0.0
O	-84.864	5.934	0.0
H	-83.948	-0.037	0.0
H	-91.312	5.55	0.001
C	-88.381	-2.202	0.0
C	-86.953	7.723	0.0
H	-87.416	-2.702	0.0
H	-88.959	-2.477	-0.885
H	-88.959	-2.476	0.886
H	-87.427	8.152	0.886
H	-85.885	7.927	-0.001
H	-87.428	8.152	-0.885
S	-83.449	3.61	0.0
C	-84.036	1.038	0.0
C	-82.969	1.903	0.0
C	-95.838	3.484	0.0
C	-95.741	4.859	0.001
O	-94.592	2.931	0.0
H	-96.57	5.551	0.001
H	-93.906	6.144	0.001
C	-94.359	5.163	0.001
C	-93.681	3.961	0.0
C	-99.108	2.104	0.0
C	-98.43	0.902	0.0
O	-98.197	3.134	0.0
H	-98.882	-0.08	0.0
H	-96.219	0.513	0.0
C	-97.047	1.206	0.0
C	-96.951	2.581	0.0
C	-109.82	4.162	0.0
C	-108.753	5.026	0.0
S	-109.34	2.454	-0.0
C	-107.654	2.927	-0.0
C	-107.494	4.356	0.0
C	-106.188	4.889	0.0
C	-105.068	4.019	0.0
C	-105.246	2.595	0.0
C	-106.565	2.066	-0.0
C	-103.75	4.551	0.0
C	-102.662	3.689	0.0
C	-102.822	2.258	0.0
C	-104.128	1.723	0.0
C	-104.33	0.256	0.0
N	-105.66	-0.204	0.0
C	-106.787	0.612	-0.0
C	-105.981	6.353	0.001
N	-104.656	6.818	0.0
C	-103.523	6.007	-0.0
O	-103.408	-0.553	0.0
O	-107.913	0.118	0.0
O	-106.892	7.176	-0.0
O	-102.391	6.485	0.0
H	-101.475	0.514	0.0
H	-108.838	6.102	0.001
C	-105.907	-1.65	0.0
C	-104.479	8.275	0.0
H	-104.943	-2.151	0.0
H	-106.485	-1.925	-0.885
H	-106.485	-1.925	0.886
H	-104.953	8.704	0.886
H	-103.411	8.478	-0.001
H	-104.954	8.704	-0.885
S	-100.976	4.161	0.0
C	-101.562	1.59	0.0
C	-100.495	2.454	0.0
C	-113.365	4.035	0.0
C	-113.268	5.41	0.001
O	-112.119	3.482	0.0
H	-114.097	6.103	0.001
H	-111.433	6.696	0.001
C	-111.885	5.714	0.001
C	-111.208	4.512	0.0
C	-116.634	2.655	0.0
C	-115.957	1.453	0.0
O	-115.723	3.685	0.0
H	-116.409	0.472	0.0
H	-113.745	1.065	0.0
C	-114.574	1.757	0.0
C	-114.477	3.132	0.0
C	-127.347	4.713	0.0
C	-126.279	5.577	0.0
S	-126.867	3.005	-0.0
C	-125.18	3.478	0.0
C	-125.02	4.907	0.0
C	-123.715	5.441	0.0
C	-122.595	4.571	0.0
C	-122.773	3.146	0.0
C	-124.092	2.617	0.0
C	-121.277	5.102	0.0
C	-120.189	4.24	0.0
C	-120.349	2.81	0.0
C	-121.654	2.274	0.0
C	-121.857	0.807	0.0
N	-123.187	0.348	0.0
C	-124.313	1.163	-0.0
C	-123.508	6.905	0.001
N	-122.183	7.369	0.0
C	-121.05	6.558	-0.0
O	-120.934	-0.002	0.0
O	-125.439	0.669	0.0
O	-124.418	7.728	-0.0
O	-119.917	7.036	0.0
H	-119.001	1.066	0.0
H	-126.365	6.653	0.001
C	-123.434	-1.099	0.0
C	-122.006	8.826	0.0
H	-122.469	-1.6	0.0
H	-124.012	-1.374	-0.885
H	-124.012	-1.374	0.886
H	-122.48	9.255	0.886
H	-120.938	9.03	-0.001
H	-122.481	9.255	-0.885
S	-118.502	4.713	0.0
C	-119.089	2.141	0.0
C	-118.022	3.005	0.0
C	-130.891	4.586	0.0
C	-130.794	5.961	0.001
O	-129.645	4.033	0.0
H	-131.623	6.654	0.001
H	-128.959	7.247	0.001
C	-129.412	6.265	0.001
C	-128.734	5.063	0.0
C	-134.161	3.207	0.0
C	-133.483	2.004	0.0
O	-133.25	4.237	0.0
H	-133.935	1.023	0.0
H	-131.272	1.616	0.0
C	-132.1	2.309	0.0
C	-132.004	3.684	0.0
C	-144.873	5.264	0.0
C	-143.806	6.128	0.0
S	-144.393	3.556	-0.0
C	-142.707	4.029	0.0
C	-142.547	5.459	0.0
C	-141.241	5.992	0.0
C	-140.121	5.122	0.0
C	-140.299	3.698	0.0
C	-141.618	3.169	0.0
C	-138.803	5.653	0.0
C	-137.715	4.791	0.0
C	-137.875	3.361	0.0
C	-139.181	2.826	0.0
C	-139.383	1.358	0.0
N	-140.713	0.899	0.0
C	-141.84	1.714	-0.0
C	-141.034	7.456	0.001
N	-139.709	7.921	0.0
C	-138.576	7.109	-0.0
O	-138.461	0.549	0.0
O	-142.966	1.22	0.0
O	-141.945	8.279	-0.0
O	-137.444	7.588	0.0
H	-136.528	1.617	0.0
H	-143.891	7.204	0.001
C	-140.96	-0.548	0.0
C	-139.532	9.377	0.0
H	-139.996	-1.049	0.0
H	-141.538	-0.823	-0.885
H	-141.538	-0.822	0.886
H	-140.006	9.806	0.886
H	-138.464	9.581	-0.001
H	-140.007	9.806	-0.885
S	-136.029	5.264	0.0
C	-136.615	2.692	0.0
C	-135.548	3.557	0.0
C	-148.418	5.138	0.0
C	-148.321	6.513	0.001
O	-147.172	4.584	0.0
H	-149.15	7.205	0.001
H	-146.486	7.798	0.001
C	-146.938	6.817	0.001
C	-146.261	5.615	0.0
C	-151.687	3.758	0.0
C	-151.01	2.556	0.0
O	-150.776	4.788	0.0
H	-151.462	1.574	0.0
H	-148.798	2.167	0.0
C	-149.627	2.86	0.0
C	-149.53	4.235	0.0
C	-162.4	5.816	0.0
C	-161.332	6.68	0.0
S	-161.92	4.108	-0.0
C	-160.233	4.581	0.0
C	-160.073	6.01	0.0
C	-158.768	6.543	0.0
C	-157.648	5.673	0.0
C	-157.826	4.249	0.0
C	-159.145	3.72	0.0
C	-156.33	6.205	0.0
C	-155.242	5.342	0.0
C	-155.402	3.912	0.0
C	-156.707	3.377	0.0
C	-156.91	1.91	0.0
N	-158.24	1.45	0.0
C	-159.366	2.266	-0.0
C	-158.561	8.007	0.001
N	-157.236	8.472	0.0
C	-156.103	7.66	-0.0
O	-155.987	1.101	0.0
O	-160.492	1.772	0.0
O	-159.471	8.83	-0.0
O	-154.97	8.139	0.0
H	-154.054	2.168	0.0
H	-161.418	7.756	0.001
C	-158.487	0.004	0.0
C	-157.059	9.929	0.0
H	-157.522	-0.497	0.0
H	-159.065	-0.271	-0.885
H	-159.065	-0.271	0.886
H	-157.533	10.358	0.886
H	-155.991	10.132	-0.001
H	-157.534	10.358	-0.885
S	-153.555	5.815	0.0
C	-154.142	3.244	0.0
C	-153.075	4.108	0.0
C	-165.944	5.689	0.0
C	-165.847	7.064	0.001
O	-164.698	5.136	0.0
H	-166.676	7.757	0.001
H	-164.012	8.35	0.001
C	-164.465	7.368	0.001
C	-163.787	6.166	0.0
H	9.136	-0.169	0.0
H	-166.872	5.131	0.0
