472
NDTI-b14_2_10x2_BT_10
C	1.003	-0.722	-0.0
C	1.821	0.382	-0.0
S	1.924	-2.247	0.0
C	3.428	-1.352	0.0
C	3.213	0.068	-0.0
C	4.326	0.931	-0.0
C	5.636	0.389	-0.0
C	5.838	-1.034	0.0
C	4.707	-1.893	0.0
C	6.766	1.251	-0.0
C	8.045	0.708	0.0
C	8.261	-0.714	0.0
C	7.148	-1.578	0.0
C	7.343	-3.05	0.0
N	6.184	-3.844	0.0
C	4.881	-3.356	0.0
C	4.136	2.401	-0.0
N	5.287	3.199	-0.0
C	6.596	2.717	-0.0
O	8.447	-3.583	0.0
O	3.929	-4.131	0.0
O	3.038	2.949	-0.0
O	7.558	3.48	-0.0
H	9.999	-2.047	0.0
H	1.478	1.404	-0.0
C	6.329	-5.305	0.0
C	5.071	4.651	-0.0
H	7.391	-5.534	0.001
H	5.843	-5.722	0.886
H	5.844	-5.722	-0.886
H	4.5	4.938	-0.886
H	6.047	5.13	-0.001
H	4.501	4.939	0.886
S	9.55	1.602	-0.0
C	9.653	-1.025	0.0
C	10.47	0.077	0.0
C	-3.409	-0.526	-0.0
C	-2.727	-1.792	-0.0
C	-2.572	0.585	0.0
N	-3.319	-2.989	-0.0
N	-0.82	-3.129	-0.0
S	-2.128	-4.118	-0.0
H	-0.619	1.444	0.0
H	-3.009	1.577	0.0
C	-1.164	0.507	0.0
C	-1.275	-1.873	-0.0
C	-0.456	-0.691	-0.0
C	-14.182	1.451	0.0
C	-13.492	0.263	0.0
S	-13.097	2.865	0.0
C	-11.702	1.808	0.0
C	-12.074	0.42	0.0
C	-11.063	-0.561	0.0
C	-9.701	-0.168	0.0
C	-9.343	1.224	0.0
C	-10.371	2.204	0.0
C	-8.674	-1.15	0.0
C	-7.343	-0.752	0.0
C	-6.97	0.637	0.0
C	-7.98	1.619	0.0
C	-7.623	3.06	-0.0
N	-8.686	3.978	-0.0
C	-10.036	3.638	-0.0
C	-11.415	-2.0	0.0
N	-10.36	-2.921	0.0
C	-9.005	-2.588	0.0
O	-6.466	3.467	-0.0
O	-10.896	4.514	-0.0
O	-12.567	-2.423	0.0
O	-8.135	-3.453	0.0
H	-5.095	1.768	-0.0
H	-13.946	-0.715	0.0
C	-8.38	5.414	-0.0
C	-10.736	-4.34	0.001
H	-7.299	5.523	-0.001
H	-8.816	5.882	-0.886
H	-8.816	5.882	0.886
H	-11.336	-4.563	0.886
H	-9.819	-4.925	0.001
H	-11.334	-4.563	-0.886
S	-5.946	-1.807	0.0
C	-5.551	0.792	-0.0
C	-4.862	-0.395	-0.0
C	-18.588	1.747	0.0
C	-17.77	2.929	0.0
C	-17.88	0.549	0.0
N	-18.225	4.185	0.0
N	-15.726	4.045	0.0
S	-16.916	5.173	0.0
H	-16.035	-0.522	-0.0
H	-18.425	-0.388	-0.0
C	-16.472	0.47	0.0
C	-16.318	2.848	0.0
C	-15.636	1.582	0.0
C	-29.515	0.979	0.0
C	-28.696	2.083	0.0
S	-28.594	-0.546	0.0
C	-27.09	0.349	0.0
C	-27.305	1.769	0.0
C	-26.192	2.632	0.0
C	-24.881	2.09	0.0
C	-24.68	0.667	0.0
C	-25.81	-0.192	0.0
C	-23.752	2.952	0.0
C	-22.473	2.409	0.0
C	-22.257	0.987	0.0
C	-23.369	0.123	0.0
C	-23.175	-1.348	0.0
N	-24.333	-2.143	0.0
C	-25.637	-1.655	0.0
C	-26.382	4.102	-0.0
N	-25.231	4.9	-0.0
C	-23.921	4.418	-0.0
O	-22.07	-1.882	0.0
O	-26.589	-2.43	0.0
O	-27.48	4.65	-0.0
O	-22.96	5.181	-0.0
H	-20.519	-0.346	0.0
H	-29.04	3.105	-0.0
C	-24.189	-3.604	0.0
C	-25.446	6.352	-0.0
H	-23.126	-3.833	0.001
H	-24.674	-4.021	0.886
H	-24.673	-4.021	-0.886
H	-26.018	6.64	-0.886
H	-24.47	6.831	-0.001
H	-26.016	6.64	0.886
S	-20.968	3.303	0.0
C	-20.864	0.676	0.0
C	-20.047	1.779	0.0
C	-33.926	1.175	0.0
C	-33.244	-0.091	-0.0
C	-33.089	2.286	0.0
N	-33.836	-1.288	-0.0
N	-31.337	-1.428	-0.0
S	-32.645	-2.416	-0.0
H	-31.137	3.145	0.0
H	-33.527	3.278	0.0
C	-31.682	2.208	0.0
C	-31.792	-0.172	-0.0
C	-30.974	1.01	0.0
C	-44.7	3.152	0.0
C	-44.009	1.964	0.0
S	-43.615	4.566	0.0
C	-42.22	3.509	0.0
C	-42.591	2.121	0.0
C	-41.581	1.14	0.0
C	-40.218	1.533	0.0
C	-39.86	2.925	0.0
C	-40.888	3.905	0.0
C	-39.191	0.551	0.0
C	-37.86	0.949	0.0
C	-37.488	2.338	0.0
C	-38.497	3.32	0.0
C	-38.14	4.761	0.0
N	-39.203	5.679	0.0
C	-40.553	5.339	0.0
C	-41.933	-0.299	0.0
N	-40.878	-1.22	0.001
C	-39.523	-0.887	0.0
O	-36.983	5.168	0.0
O	-41.413	6.216	0.0
O	-43.085	-0.722	0.0
O	-38.652	-1.752	0.0
H	-35.612	3.469	0.0
H	-44.464	0.987	0.0
C	-38.898	7.115	-0.0
C	-41.253	-2.639	0.001
H	-37.816	7.224	-0.001
H	-39.334	7.584	-0.886
H	-39.333	7.584	0.886
H	-41.853	-2.862	0.886
H	-40.336	-3.224	0.001
H	-41.852	-2.862	-0.886
S	-36.464	-0.106	0.0
C	-36.069	2.493	0.0
C	-35.379	1.306	0.0
C	-49.106	3.448	0.0
C	-48.288	4.63	0.0
C	-48.397	2.25	0.0
N	-48.743	5.886	0.001
N	-46.243	5.746	0.001
S	-47.434	6.874	0.001
H	-46.552	1.18	0.0
H	-48.942	1.313	0.0
C	-46.99	2.171	0.0
C	-46.835	4.549	0.0
C	-46.153	3.283	0.0
C	-60.032	2.68	0.0
C	-59.214	3.784	0.0
S	-59.111	1.155	0.0
C	-57.607	2.051	0.0
C	-57.822	3.471	0.0
C	-56.709	4.333	0.0
C	-55.399	3.792	0.0
C	-55.197	2.368	0.0
C	-56.328	1.509	0.0
C	-54.269	4.653	0.0
C	-52.99	4.11	0.0
C	-52.774	2.688	0.0
C	-53.887	1.824	0.0
C	-53.692	0.353	0.0
N	-54.851	-0.442	0.0
C	-56.154	0.046	0.0
C	-56.899	5.803	0.0
N	-55.748	6.601	-0.0
C	-54.438	6.119	0.0
O	-52.588	-0.181	0.0
O	-57.106	-0.729	0.0
O	-57.997	6.351	0.0
O	-53.477	6.882	0.0
H	-51.036	1.356	0.0
H	-59.557	4.806	0.0
C	-54.706	-1.903	0.001
C	-55.964	8.053	-0.0
H	-53.644	-2.131	0.001
H	-55.192	-2.32	0.886
H	-55.191	-2.32	-0.885
H	-56.535	8.341	-0.886
H	-54.988	8.532	-0.001
H	-56.534	8.341	0.886
S	-51.485	5.004	0.0
C	-51.382	2.377	0.0
C	-50.565	3.48	0.0
C	-64.444	2.876	0.0
C	-63.762	1.61	0.0
C	-63.607	3.987	0.0
N	-64.354	0.413	-0.0
N	-61.854	0.274	-0.0
S	-63.163	-0.715	-0.0
H	-61.654	4.846	0.0
H	-64.044	4.979	0.0
C	-62.199	3.909	0.0
C	-62.31	1.529	0.0
C	-61.491	2.711	0.0
C	-75.217	4.854	0.0
C	-74.527	3.665	0.0
S	-74.132	6.267	0.0
C	-72.737	5.21	0.0
C	-73.109	3.822	0.0
C	-72.098	2.842	0.0
C	-70.736	3.234	0.0
C	-70.377	4.626	0.0
C	-71.406	5.606	0.0
C	-69.709	2.252	0.0
C	-68.377	2.65	0.0
C	-68.005	4.039	0.0
C	-69.015	5.021	0.0
C	-68.658	6.462	0.0
N	-69.721	7.38	0.0
C	-71.071	7.04	0.0
C	-72.45	1.402	0.001
N	-71.395	0.481	0.001
C	-70.04	0.815	0.001
O	-67.501	6.87	0.0
O	-71.931	7.917	0.0
O	-73.602	0.979	0.001
O	-69.169	-0.051	0.0
H	-66.13	5.171	0.0
H	-74.981	2.688	0.001
C	-69.415	8.816	0.0
C	-71.771	-0.938	0.001
H	-68.334	8.926	-0.0
H	-69.851	9.285	-0.886
H	-69.851	9.285	0.886
H	-72.371	-1.161	0.886
H	-70.854	-1.523	0.002
H	-72.369	-1.161	-0.885
S	-66.981	1.595	0.0
C	-66.586	4.194	0.0
C	-65.897	3.007	0.0
C	-79.623	5.149	0.0
C	-78.805	6.331	0.001
C	-78.915	3.951	0.0
N	-79.26	7.587	0.001
N	-76.761	7.447	0.001
S	-77.951	8.576	0.001
H	-77.07	2.881	0.0
H	-79.46	3.014	0.0
C	-77.507	3.873	0.0
C	-77.353	6.25	0.001
C	-76.67	4.984	0.0
C	-90.55	4.381	0.0
C	-89.731	5.485	0.0
S	-89.628	2.856	0.0
C	-88.125	3.752	0.0
C	-88.34	5.172	0.0
C	-87.227	6.034	0.0
C	-85.916	5.493	0.0
C	-85.715	4.069	0.0
C	-86.845	3.21	0.0
C	-84.787	6.354	0.0
C	-83.508	5.811	0.0
C	-83.292	4.389	0.0
C	-84.404	3.525	0.0
C	-84.21	2.054	0.001
N	-85.368	1.259	0.001
C	-86.672	1.747	0.001
C	-87.417	7.504	0.0
N	-86.266	8.302	0.0
C	-84.956	7.82	0.0
O	-83.105	1.521	0.001
O	-87.624	0.972	0.001
O	-88.515	8.052	0.0
O	-83.995	8.583	0.0
H	-81.554	3.057	0.001
H	-90.075	6.507	0.0
C	-85.224	-0.202	0.001
C	-86.481	9.754	-0.0
H	-84.161	-0.43	0.001
H	-85.709	-0.619	0.886
H	-85.708	-0.619	-0.885
H	-87.053	10.042	-0.885
H	-85.505	10.233	-0.001
H	-87.051	10.042	0.886
S	-82.003	6.705	0.0
C	-81.899	4.078	0.0
C	-81.082	5.181	0.0
C	-94.961	4.577	0.0
C	-94.279	3.311	0.0
C	-94.124	5.689	0.0
N	-94.871	2.114	0.0
N	-92.372	1.975	0.0
S	-93.68	0.986	0.0
H	-92.172	6.548	0.001
H	-94.562	6.681	0.001
C	-92.717	5.61	0.0
C	-92.827	3.23	0.0
C	-92.008	4.412	0.0
C	-105.735	6.555	0.001
C	-105.044	5.367	0.001
S	-104.65	7.968	0.0
C	-103.255	6.911	0.0
C	-103.626	5.524	0.001
C	-102.616	4.543	0.001
C	-101.253	4.935	0.001
C	-100.895	6.327	0.0
C	-101.923	7.307	0.0
C	-100.226	3.953	0.001
C	-98.895	4.352	0.0
C	-98.523	5.74	0.0
C	-99.532	6.723	0.0
C	-99.175	8.163	0.0
N	-100.238	9.082	0.0
C	-101.588	8.741	0.0
C	-102.968	3.103	0.001
N	-101.913	2.182	0.001
C	-100.558	2.516	0.001
O	-98.018	8.571	0.0
O	-102.448	9.618	0.0
O	-104.12	2.68	0.001
O	-99.687	1.651	0.001
H	-96.647	6.872	0.0
H	-105.499	4.389	0.001
C	-99.933	10.518	0.0
C	-102.288	0.763	0.001
H	-98.851	10.627	-0.0
H	-100.369	10.986	-0.885
H	-100.368	10.986	0.886
H	-102.888	0.541	0.886
H	-101.371	0.178	0.002
H	-102.887	0.54	-0.885
S	-97.499	3.296	0.0
C	-97.104	5.895	0.0
C	-96.414	4.708	0.0
C	-110.141	6.85	0.001
C	-109.323	8.032	0.001
C	-109.432	5.652	0.0
N	-109.778	9.288	0.001
N	-107.278	9.149	0.001
S	-108.469	10.277	0.001
H	-107.587	4.582	0.0
H	-109.977	4.715	0.0
C	-108.025	5.574	0.0
C	-107.87	7.951	0.001
C	-107.188	6.686	0.001
C	-121.067	6.082	0.0
C	-120.249	7.186	0.0
S	-120.146	4.557	0.001
C	-118.642	5.453	0.001
C	-118.857	6.873	0.0
C	-117.744	7.735	0.0
C	-116.434	7.194	0.0
C	-116.232	5.77	0.001
C	-117.363	4.911	0.001
C	-115.304	8.055	0.0
C	-114.025	7.512	0.0
C	-113.809	6.09	0.001
C	-114.922	5.226	0.001
C	-114.727	3.755	0.001
N	-115.885	2.96	0.001
C	-117.189	3.448	0.001
C	-117.934	9.205	0.0
N	-116.783	10.003	0.0
C	-115.473	9.521	0.0
O	-113.622	3.222	0.001
O	-118.141	2.673	0.001
O	-119.032	9.753	0.0
O	-114.512	10.284	0.0
H	-112.071	4.758	0.001
H	-120.592	8.209	0.0
C	-115.741	1.499	0.001
C	-116.999	11.455	0.0
H	-114.679	1.271	0.001
H	-116.227	1.082	0.886
H	-116.226	1.082	-0.885
H	-117.57	11.743	-0.885
H	-116.022	11.934	-0.001
H	-117.569	11.743	0.886
S	-112.52	8.406	0.0
C	-112.416	5.779	0.001
C	-111.599	6.882	0.001
C	-125.479	6.278	0.0
C	-124.797	5.012	0.0
C	-124.642	7.39	0.001
N	-125.389	3.815	0.0
N	-122.889	3.676	0.0
S	-124.198	2.687	0.0
H	-122.689	8.249	0.001
H	-125.079	8.382	0.001
C	-123.234	7.311	0.001
C	-123.344	4.931	0.0
C	-122.526	6.113	0.0
C	-136.252	8.256	0.001
C	-135.562	7.068	0.001
S	-135.167	9.669	0.001
C	-133.772	8.612	0.001
C	-134.144	7.225	0.001
C	-133.133	6.244	0.001
C	-131.771	6.636	0.001
C	-131.412	8.029	0.001
C	-132.441	9.008	0.001
C	-130.744	5.655	0.001
C	-129.412	6.053	0.001
C	-129.04	7.441	0.001
C	-130.05	8.424	0.0
C	-129.693	9.864	0.0
N	-130.756	10.783	0.0
C	-132.106	10.442	0.0
C	-133.485	4.804	0.001
N	-132.43	3.883	0.001
C	-131.075	4.217	0.001
O	-128.536	10.272	0.0
O	-132.966	11.319	0.0
O	-134.637	4.381	0.001
O	-130.204	3.352	0.001
H	-127.165	8.573	0.0
H	-136.016	6.09	0.001
C	-130.45	12.219	0.0
C	-132.806	2.464	0.001
H	-129.369	12.328	-0.0
H	-130.886	12.687	-0.885
H	-130.885	12.687	0.886
H	-133.406	2.242	0.886
H	-131.889	1.879	0.002
H	-133.404	2.241	-0.885
S	-128.016	4.997	0.001
C	-127.621	7.596	0.0
C	-126.932	6.409	0.0
C	-140.658	8.551	0.001
C	-139.84	9.734	0.001
C	-139.95	7.353	0.001
N	-140.295	10.989	0.001
N	-137.796	10.85	0.001
S	-138.986	11.978	0.001
H	-138.105	6.283	0.0
H	-140.495	6.416	0.0
C	-138.542	7.275	0.001
C	-138.388	9.653	0.001
C	-137.705	8.387	0.001
H	11.551	0.027	0.0
H	-141.74	8.59	0.001
