392
TIGBT_10
C	0.584	1.742	0.0
C	1.358	2.908	0.0
S	1.59	0.283	-0.0
C	4.449	1.099	-0.0
C	4.988	2.513	0.0
N	3.89	3.368	0.0
C	2.722	2.607	0.0
C	3.036	1.244	-0.0
C	5.278	-0.001	-0.0
C	4.739	-1.414	-0.0
N	5.836	-2.269	-0.0
C	7.004	-1.508	-0.0
C	6.692	-0.146	-0.0
O	6.159	2.869	0.0
O	3.567	-1.769	0.0
C	3.985	4.813	0.0
C	5.741	-3.714	0.0
H	6.215	-4.138	-0.892
H	6.215	-4.138	0.893
H	4.679	-3.969	0.0
H	3.51	5.237	-0.892
H	3.51	5.237	0.893
H	5.046	5.068	0.0
H	0.924	3.897	0.0
H	8.805	-2.798	0.0
S	8.14	0.813	-0.0
C	8.371	-1.809	-0.0
C	9.142	-0.645	-0.0
C	-3.81	1.299	0.0
C	-3.197	2.608	0.0
C	-2.906	0.238	-0.0
N	-3.851	3.773	0.0
N	-1.362	4.049	0.0
S	-2.724	4.966	0.0
H	-0.915	-0.516	-0.0
H	-3.286	-0.779	-0.0
C	-1.509	0.393	-0.0
C	-1.744	2.769	0.0
C	-0.859	1.626	0.0
C	-13.07	-3.11	-0.0
C	-12.06	-4.078	-0.0
S	-12.41	-1.467	0.0
C	-9.44	-1.636	-0.0
C	-8.605	-2.896	-0.0
N	-9.489	-3.972	-0.0
C	-10.795	-3.485	-0.0
C	-10.788	-2.086	-0.0
C	-8.874	-0.38	0.0
C	-9.709	0.88	0.0
N	-8.826	1.955	-0.0
C	-7.52	1.468	0.0
C	-7.525	0.071	0.0
O	-7.384	-2.987	-0.0
O	-10.93	0.97	-0.0
C	-9.079	-5.36	-0.0
C	-9.236	3.344	-0.0
H	-8.866	3.862	0.892
H	-8.866	3.862	-0.893
H	-10.327	3.36	-0.0
H	-9.449	-5.878	0.892
H	-9.449	-5.878	-0.893
H	-7.988	-5.377	-0.0
H	-12.267	-5.138	-0.0
H	-6.045	3.122	-0.0
S	-5.903	-0.547	0.0
C	-6.252	2.062	-0.0
C	-5.245	1.096	0.0
C	-17.456	-3.641	-0.0
C	-16.57	-4.784	-0.0
C	-16.806	-2.408	-0.0
N	-16.953	-6.064	-0.0
N	-14.464	-5.788	-0.0
S	-15.591	-6.981	-0.0
H	-15.029	-1.236	-0.0
H	-17.4	-1.499	-0.0
C	-15.409	-2.253	-0.0
C	-15.117	-4.623	-0.0
C	-14.504	-3.314	-0.0
C	-27.457	-1.369	0.0
C	-26.684	-0.203	0.0
S	-26.452	-2.827	-0.0
C	-23.592	-2.012	-0.0
C	-23.053	-0.598	0.0
N	-24.151	0.257	0.0
C	-25.319	-0.504	0.0
C	-25.006	-1.867	-0.0
C	-22.764	-3.112	-0.0
C	-23.303	-4.525	-0.0
N	-22.205	-5.38	-0.0
C	-21.038	-4.619	-0.0
C	-21.349	-3.257	-0.0
O	-21.883	-0.242	0.0
O	-24.474	-4.88	0.0
C	-24.056	1.702	0.0
C	-22.301	-6.825	0.0
H	-21.826	-7.249	-0.892
H	-21.826	-7.249	0.893
H	-23.362	-7.08	0.0
H	-24.531	2.126	-0.892
H	-24.531	2.126	0.893
H	-22.995	1.957	0.0
H	-27.117	0.786	0.0
H	-19.236	-5.909	0.0
S	-19.902	-2.298	-0.0
C	-19.67	-4.92	-0.0
C	-18.9	-3.756	-0.0
C	-31.852	-1.812	0.0
C	-31.239	-0.503	0.0
C	-30.948	-2.873	0.0
N	-31.892	0.662	0.0
N	-29.404	0.938	0.0
S	-30.765	1.856	0.0
H	-28.957	-3.627	-0.0
H	-31.328	-3.89	-0.0
C	-29.551	-2.718	0.0
C	-29.786	-0.342	0.0
C	-28.901	-1.485	0.0
C	-41.112	-6.221	-0.0
C	-40.102	-7.189	-0.0
S	-40.451	-4.578	0.0
C	-37.482	-4.746	-0.0
C	-36.646	-6.007	-0.0
N	-37.53	-7.083	-0.0
C	-38.836	-6.596	-0.0
C	-38.829	-5.197	-0.0
C	-36.915	-3.491	0.0
C	-37.751	-2.231	0.0
N	-36.868	-1.156	-0.0
C	-35.561	-1.643	0.0
C	-35.567	-3.04	0.0
O	-35.426	-6.098	-0.0
O	-38.972	-2.141	-0.0
C	-37.121	-8.471	-0.0
C	-37.277	0.233	-0.0
H	-36.907	0.751	0.892
H	-36.908	0.751	-0.893
H	-38.369	0.249	-0.0
H	-37.491	-8.989	0.892
H	-37.491	-8.989	-0.893
H	-36.029	-8.488	-0.0
H	-40.308	-8.249	-0.0
H	-34.087	0.011	-0.0
S	-33.944	-3.658	0.0
C	-34.293	-1.049	-0.0
C	-33.286	-2.015	0.0
C	-45.497	-6.752	-0.0
C	-44.612	-7.895	-0.0
C	-44.847	-5.519	-0.0
N	-44.994	-9.175	-0.0
N	-42.505	-8.899	-0.0
S	-43.633	-10.092	-0.0
H	-43.07	-4.347	-0.0
H	-45.441	-4.61	0.0
C	-43.45	-5.364	-0.0
C	-43.159	-7.734	-0.0
C	-42.546	-6.425	-0.0
C	-55.498	-4.48	0.0
C	-54.725	-3.314	0.0
S	-54.493	-5.938	-0.0
C	-51.633	-5.122	0.0
C	-51.095	-3.709	0.0
N	-52.193	-2.854	0.0
C	-53.36	-3.615	0.0
C	-53.047	-4.978	0.0
C	-50.805	-6.223	-0.0
C	-51.344	-7.635	-0.0
N	-50.247	-8.491	0.0
C	-49.079	-7.73	-0.0
C	-49.391	-6.368	-0.0
O	-49.924	-3.353	0.0
O	-52.516	-7.991	0.0
C	-52.098	-1.409	0.0
C	-50.342	-9.936	0.0
H	-49.868	-10.36	-0.892
H	-49.868	-10.36	0.893
H	-51.403	-10.191	0.0
H	-52.572	-0.985	-0.892
H	-52.572	-0.985	0.893
H	-51.037	-1.154	0.0
H	-55.159	-2.325	0.0
H	-47.278	-9.02	0.0
S	-47.943	-5.409	-0.0
C	-47.712	-8.031	0.0
C	-46.941	-6.867	-0.0
C	-59.893	-4.923	0.0
C	-59.28	-3.614	0.0
C	-58.989	-5.984	0.0
N	-59.934	-2.449	0.0
N	-57.445	-2.173	0.0
S	-58.807	-1.255	0.0
H	-56.998	-6.738	0.0
H	-59.369	-7.001	-0.0
C	-57.592	-5.829	0.0
C	-57.827	-3.453	0.0
C	-56.942	-4.596	0.0
C	-69.153	-9.332	-0.0
C	-68.143	-10.3	-0.0
S	-68.492	-7.688	0.0
C	-65.523	-7.857	0.0
C	-64.688	-9.118	-0.0
N	-65.571	-10.193	-0.0
C	-66.878	-9.707	-0.0
C	-66.871	-8.308	0.0
C	-64.957	-6.602	0.0
C	-65.792	-5.342	0.0
N	-64.909	-4.267	0.0
C	-63.603	-4.753	0.0
C	-63.608	-6.15	0.0
O	-63.467	-9.209	-0.0
O	-67.013	-5.252	-0.0
C	-65.162	-11.582	-0.0
C	-65.319	-2.878	-0.0
H	-64.949	-2.36	0.892
H	-64.949	-2.36	-0.893
H	-66.41	-2.862	-0.0
H	-65.532	-12.1	0.892
H	-65.532	-12.1	-0.893
H	-64.071	-11.599	-0.0
H	-68.349	-11.36	-0.0
H	-62.128	-3.1	-0.0
S	-61.985	-6.768	0.0
C	-62.335	-4.16	0.0
C	-61.328	-5.126	0.0
C	-73.538	-9.863	-0.0
C	-72.653	-11.006	-0.0
C	-72.889	-8.63	-0.0
N	-73.036	-12.286	-0.0
N	-70.546	-12.01	-0.0
S	-71.674	-13.203	-0.0
H	-71.112	-7.458	0.0
H	-73.482	-7.721	0.0
C	-71.492	-8.475	-0.0
C	-71.2	-10.845	-0.0
C	-70.587	-9.536	-0.0
C	-83.54	-7.591	0.0
C	-82.767	-6.425	0.0
S	-82.535	-9.049	-0.0
C	-79.675	-8.233	0.0
C	-79.136	-6.82	0.0
N	-80.234	-5.965	0.0
C	-81.402	-6.726	0.0
C	-81.088	-8.089	0.0
C	-78.847	-9.334	-0.0
C	-79.386	-10.746	-0.0
N	-78.288	-11.602	0.0
C	-77.121	-10.841	-0.0
C	-77.432	-9.479	-0.0
O	-77.965	-6.464	0.0
O	-80.557	-11.102	0.0
C	-80.139	-4.52	0.0
C	-78.384	-13.047	0.0
H	-77.909	-13.471	-0.892
H	-77.909	-13.471	0.893
H	-79.445	-13.302	0.0
H	-80.614	-4.096	-0.892
H	-80.614	-4.096	0.893
H	-79.078	-4.265	0.0
H	-83.2	-5.436	0.0
H	-75.319	-12.131	0.0
S	-75.984	-8.52	-0.0
C	-75.753	-11.142	0.0
C	-74.983	-9.978	-0.0
C	-87.935	-8.034	0.0
C	-87.322	-6.725	0.0
C	-87.03	-9.095	0.0
N	-87.975	-5.56	0.0
N	-85.486	-5.284	0.0
S	-86.848	-4.366	0.0
H	-85.04	-9.849	0.0
H	-87.41	-10.112	0.0
C	-85.634	-8.94	0.0
C	-85.869	-6.563	0.0
C	-84.984	-7.707	0.0
C	-97.195	-12.443	-0.0
C	-96.185	-13.41	-0.0
S	-96.534	-10.799	0.0
C	-93.565	-10.968	0.0
C	-92.729	-12.229	-0.0
N	-93.613	-13.304	-0.0
C	-94.919	-12.818	-0.0
C	-94.912	-11.419	0.0
C	-92.998	-9.713	0.0
C	-93.833	-8.453	0.0
N	-92.95	-7.378	0.0
C	-91.644	-7.864	0.0
C	-91.65	-9.261	0.0
O	-91.509	-12.32	-0.0
O	-95.054	-8.363	-0.0
C	-93.203	-14.693	-0.0
C	-93.36	-5.989	-0.0
H	-92.99	-5.471	0.892
H	-92.99	-5.471	-0.893
H	-94.452	-5.973	-0.0
H	-93.573	-15.211	0.892
H	-93.574	-15.211	-0.893
H	-92.112	-14.71	-0.0
H	-96.391	-14.471	-0.0
H	-90.17	-6.211	-0.0
S	-90.027	-9.879	0.0
C	-90.376	-7.271	0.0
C	-89.369	-8.237	0.0
C	-101.58	-12.974	-0.0
C	-100.695	-14.117	-0.0
C	-100.93	-11.741	0.0
N	-101.077	-15.397	-0.0
N	-98.588	-15.121	-0.0
S	-99.715	-16.314	-0.0
H	-99.153	-10.569	0.0
H	-101.524	-10.832	0.0
C	-99.533	-11.586	0.0
C	-99.241	-13.956	-0.0
C	-98.629	-12.646	-0.0
C	-111.581	-10.702	0.0
C	-110.808	-9.536	0.0
S	-110.576	-12.16	-0.0
C	-107.716	-11.344	0.0
C	-107.178	-9.931	0.0
N	-108.275	-9.076	0.0
C	-109.443	-9.837	0.0
C	-109.13	-11.2	0.0
C	-106.888	-12.445	-0.0
C	-107.427	-13.857	-0.0
N	-106.33	-14.713	0.0
C	-105.162	-13.952	-0.0
C	-105.473	-12.59	-0.0
O	-106.007	-9.575	0.0
O	-108.598	-14.213	0.0
C	-108.181	-7.631	0.0
C	-106.425	-16.158	0.0
H	-105.95	-16.582	-0.892
H	-105.951	-16.582	0.893
H	-107.486	-16.413	0.0
H	-108.655	-7.207	-0.892
H	-108.655	-7.207	0.893
H	-107.119	-7.376	0.0
H	-111.242	-8.547	0.0
H	-103.361	-15.242	0.0
S	-104.026	-11.631	-0.0
C	-103.795	-14.252	0.0
C	-103.024	-13.089	-0.0
C	-115.976	-11.145	0.0
C	-115.363	-9.836	0.0
C	-115.072	-12.206	0.0
N	-116.017	-8.671	0.0
N	-113.528	-8.395	0.0
S	-114.89	-7.477	0.0
H	-113.081	-12.96	0.0
H	-115.452	-13.223	0.0
C	-113.675	-12.051	0.0
C	-113.91	-9.674	0.0
C	-113.025	-10.817	0.0
C	-125.236	-15.554	-0.0
C	-124.226	-16.521	-0.0
S	-124.575	-13.91	0.0
C	-121.606	-14.079	0.0
C	-120.771	-15.34	-0.0
N	-121.654	-16.415	-0.0
C	-122.96	-15.929	-0.0
C	-122.954	-14.53	0.0
C	-121.039	-12.824	0.0
C	-121.875	-11.564	0.0
N	-120.992	-10.489	0.0
C	-119.686	-10.975	0.0
C	-119.691	-12.372	0.0
O	-119.55	-15.431	-0.0
O	-123.096	-11.474	-0.0
C	-121.245	-17.804	-0.0
C	-121.402	-9.1	-0.0
H	-121.032	-8.582	0.892
H	-121.032	-8.582	-0.893
H	-122.493	-9.084	-0.0
H	-121.615	-18.322	0.892
H	-121.615	-18.322	-0.893
H	-120.154	-17.82	-0.0
H	-124.432	-17.582	-0.0
H	-118.211	-9.322	-0.0
S	-118.068	-12.99	0.0
C	-118.418	-10.382	0.0
C	-117.411	-11.348	0.0
C	-129.621	-16.085	-0.0
C	-128.736	-17.228	-0.0
C	-128.971	-14.852	0.0
N	-129.118	-18.508	-0.0
N	-126.629	-18.232	-0.0
S	-127.757	-19.425	-0.0
H	-127.195	-13.68	0.0
H	-129.565	-13.943	0.0
C	-127.575	-14.697	0.0
C	-127.283	-17.067	-0.0
C	-126.67	-15.757	-0.0
H	10.224	-0.636	-0.0
H	-130.699	-16.179	-0.0
