452
TIGDPT_10
C	1.108	-0.851	-0.012
C	1.763	-2.086	-0.007
S	2.242	0.504	-0.023
C	5.014	-0.582	-0.014
C	5.417	-2.034	-0.006
N	4.243	-2.786	-0.004
C	3.152	-1.92	-0.009
C	3.594	-0.593	-0.015
C	5.944	0.437	-0.019
C	5.539	1.891	-0.028
N	6.713	2.643	-0.032
C	7.804	1.777	-0.026
C	7.363	0.45	-0.018
O	6.549	-2.503	-0.003
O	4.407	2.358	-0.032
C	4.205	-4.232	0.003
C	6.749	4.089	-0.041
H	7.258	4.476	0.85
H	7.261	4.465	-0.935
H	5.716	4.439	-0.045
H	3.695	-4.61	0.897
H	3.696	-4.617	-0.888
H	5.239	-4.582	0.005
H	1.247	-3.039	0.003
H	9.708	2.898	-0.016
S	8.717	-0.646	-0.012
C	9.192	1.945	-0.022
C	9.849	0.711	-0.01
C	-6.689	-0.535	-0.014
S	-5.589	-1.939	-0.089
C	-5.992	0.664	0.045
C	-4.598	0.464	0.03
C	-4.204	-0.89	-0.033
N	-3.475	1.273	0.053
C	-2.373	0.436	0.03
C	-2.8	-0.907	-0.033
C	-3.457	2.714	0.212
H	-2.566	3.122	-0.273
H	-3.454	3.01	1.268
H	-4.336	3.144	-0.275
H	-0.456	1.553	0.108
H	-6.486	1.628	0.102
C	-0.974	0.602	0.048
S	-1.441	-1.99	-0.088
C	-0.306	-0.614	-0.01
C	-16.809	1.04	-0.027
C	-16.123	2.258	-0.031
S	-15.709	-0.343	-0.015
C	-12.911	0.675	-0.021
C	-12.472	2.117	-0.028
N	-13.627	2.897	-0.032
C	-14.739	2.058	-0.027
C	-14.33	0.72	-0.021
C	-12.006	-0.367	-0.015
C	-12.447	-1.81	-0.006
N	-11.292	-2.591	-0.001
C	-10.18	-1.752	-0.005
C	-10.588	-0.414	-0.014
O	-11.329	2.558	-0.03
O	-13.59	-2.249	-0.004
C	-13.629	4.344	-0.038
C	-11.291	-4.038	0.009
H	-10.791	-4.437	-0.882
H	-10.79	-4.426	0.903
H	-12.333	-4.362	0.011
H	-14.129	4.734	-0.933
H	-14.13	4.741	0.852
H	-12.587	4.668	-0.039
H	-16.616	3.224	-0.042
H	-8.304	-2.92	-0.013
S	-9.207	0.647	-0.018
C	-8.796	-1.954	-0.008
C	-8.109	-0.737	-0.018
C	-24.612	0.916	-0.034
S	-23.478	2.293	0.042
C	-23.944	-0.299	-0.092
C	-22.546	-0.133	-0.075
C	-22.118	1.21	-0.012
N	-21.443	-0.97	-0.098
C	-20.32	-0.16	-0.073
C	-20.715	1.192	-0.011
C	-21.46	-2.412	-0.256
H	-20.58	-2.841	0.23
H	-21.463	-2.707	-1.313
H	-22.35	-2.82	0.229
H	-18.432	-1.325	-0.149
H	-24.462	-1.25	-0.15
C	-18.926	-0.361	-0.089
S	-19.329	2.242	0.046
C	-18.229	0.838	-0.031
C	-34.767	-0.408	-0.035
C	-34.112	-1.643	-0.03
S	-33.633	0.947	-0.046
C	-30.861	-0.139	-0.036
C	-30.458	-1.591	-0.029
N	-31.632	-2.343	-0.026
C	-32.723	-1.476	-0.032
C	-32.281	-0.149	-0.038
C	-29.931	0.881	-0.041
C	-30.336	2.334	-0.051
N	-29.162	3.086	-0.054
C	-28.071	2.22	-0.049
C	-28.512	0.893	-0.04
O	-29.326	-2.06	-0.025
O	-31.468	2.801	-0.054
C	-31.67	-3.789	-0.02
C	-29.126	4.533	-0.064
H	-28.617	4.92	0.827
H	-28.614	4.908	-0.958
H	-30.159	4.883	-0.068
H	-32.18	-4.166	0.874
H	-32.179	-4.174	-0.911
H	-30.636	-4.139	-0.018
H	-34.628	-2.596	-0.019
H	-26.167	3.341	-0.039
S	-27.158	-0.203	-0.035
C	-26.683	2.388	-0.044
C	-26.026	1.154	-0.033
C	-42.564	-0.092	-0.037
S	-41.464	-1.495	-0.112
C	-41.867	1.107	0.022
C	-40.473	0.907	0.007
C	-40.079	-0.446	-0.056
N	-39.35	1.716	0.031
C	-38.248	0.879	0.007
C	-38.675	-0.464	-0.056
C	-39.332	3.158	0.189
H	-38.441	3.565	-0.296
H	-39.329	3.453	1.246
H	-40.211	3.588	-0.298
H	-36.331	1.996	0.086
H	-42.361	2.071	0.08
C	-36.849	1.046	0.025
S	-37.316	-1.547	-0.111
C	-36.181	-0.17	-0.033
C	-52.684	1.484	-0.05
C	-51.998	2.702	-0.054
S	-51.584	0.101	-0.037
C	-48.786	1.118	-0.043
C	-48.347	2.56	-0.05
N	-49.502	3.34	-0.054
C	-50.614	2.501	-0.05
C	-50.205	1.164	-0.044
C	-47.881	0.076	-0.037
C	-48.322	-1.367	-0.028
N	-47.167	-2.148	-0.023
C	-46.055	-1.309	-0.028
C	-46.463	0.029	-0.037
O	-47.204	3.001	-0.052
O	-49.465	-1.806	-0.026
C	-49.504	4.787	-0.061
C	-47.166	-3.595	-0.014
H	-46.666	-3.994	-0.905
H	-46.665	-3.983	0.88
H	-48.208	-3.919	-0.011
H	-50.004	5.177	-0.956
H	-50.005	5.185	0.829
H	-48.462	5.112	-0.061
H	-52.491	3.667	-0.065
H	-44.179	-2.477	-0.035
S	-45.082	1.09	-0.04
C	-44.671	-1.511	-0.03
C	-43.984	-0.294	-0.041
C	-60.487	1.36	-0.057
S	-59.353	2.736	0.019
C	-59.819	0.144	-0.115
C	-58.421	0.31	-0.098
C	-57.993	1.653	-0.035
N	-57.318	-0.527	-0.121
C	-56.195	0.283	-0.096
C	-56.59	1.636	-0.033
C	-57.335	-1.968	-0.279
H	-56.455	-2.398	0.207
H	-57.338	-2.264	-1.335
H	-58.225	-2.377	0.207
H	-54.307	-0.881	-0.172
H	-60.337	-0.807	-0.173
C	-54.801	0.082	-0.112
S	-55.204	2.685	0.023
C	-54.104	1.281	-0.053
C	-70.642	0.035	-0.057
C	-69.987	-1.199	-0.053
S	-69.508	1.391	-0.068
C	-66.736	0.305	-0.059
C	-66.333	-1.148	-0.052
N	-67.507	-1.9	-0.049
C	-68.598	-1.033	-0.055
C	-68.156	0.294	-0.06
C	-65.806	1.324	-0.064
C	-66.211	2.777	-0.073
N	-65.037	3.53	-0.077
C	-63.946	2.663	-0.072
C	-64.387	1.336	-0.063
O	-65.201	-1.617	-0.048
O	-67.343	3.245	-0.077
C	-67.545	-3.346	-0.042
C	-65.001	4.976	-0.086
H	-64.492	5.363	0.805
H	-64.489	5.351	-0.98
H	-66.035	5.326	-0.09
H	-68.055	-3.723	0.852
H	-68.054	-3.731	-0.933
H	-66.511	-3.696	-0.041
H	-70.503	-2.152	-0.042
H	-62.042	3.784	-0.062
S	-63.033	0.241	-0.058
C	-62.558	2.831	-0.067
C	-61.901	1.598	-0.056
C	-78.439	0.352	-0.059
S	-77.339	-1.052	-0.134
C	-77.742	1.551	-0.001
C	-76.348	1.35	-0.016
C	-75.954	-0.003	-0.079
N	-75.225	2.159	0.008
C	-74.123	1.322	-0.015
C	-74.55	-0.02	-0.078
C	-75.207	3.601	0.166
H	-74.316	4.008	-0.319
H	-75.204	3.896	1.223
H	-76.086	4.031	-0.32
H	-72.206	2.439	0.063
H	-78.236	2.514	0.057
C	-72.724	1.489	0.002
S	-73.191	-1.104	-0.133
C	-72.056	0.273	-0.055
C	-88.559	1.927	-0.072
C	-87.873	3.145	-0.076
S	-87.459	0.544	-0.06
C	-84.661	1.561	-0.066
C	-84.222	3.003	-0.073
N	-85.377	3.784	-0.077
C	-86.489	2.944	-0.073
C	-86.08	1.607	-0.066
C	-83.756	0.519	-0.06
C	-84.197	-0.924	-0.051
N	-83.042	-1.705	-0.046
C	-81.93	-0.865	-0.05
C	-82.338	0.472	-0.059
O	-83.079	3.444	-0.075
O	-85.34	-1.363	-0.049
C	-85.379	5.23	-0.084
C	-83.041	-3.152	-0.037
H	-82.541	-3.551	-0.927
H	-82.54	-3.539	0.858
H	-84.083	-3.476	-0.034
H	-85.879	5.62	-0.978
H	-85.88	5.628	0.807
H	-84.337	5.555	-0.084
H	-88.366	4.11	-0.088
H	-80.054	-2.033	-0.058
S	-80.957	1.534	-0.063
C	-80.546	-1.068	-0.053
C	-79.859	0.149	-0.064
C	-96.362	1.803	-0.08
S	-95.228	3.179	-0.003
C	-95.694	0.587	-0.138
C	-94.296	0.753	-0.121
C	-93.868	2.096	-0.058
N	-93.193	-0.083	-0.143
C	-92.07	0.726	-0.119
C	-92.465	2.079	-0.056
C	-93.21	-1.525	-0.302
H	-92.33	-1.954	0.185
H	-93.213	-1.821	-1.358
H	-94.1	-1.933	0.184
H	-90.182	-0.438	-0.195
H	-96.212	-0.364	-0.196
C	-90.676	0.525	-0.135
S	-91.079	3.128	0.001
C	-89.979	1.724	-0.076
C	-106.517	0.479	-0.08
C	-105.862	-0.756	-0.075
S	-105.383	1.834	-0.091
C	-102.611	0.748	-0.082
C	-102.208	-0.705	-0.074
N	-103.382	-1.456	-0.072
C	-104.473	-0.59	-0.077
C	-104.031	0.737	-0.083
C	-101.681	1.767	-0.087
C	-102.086	3.221	-0.096
N	-100.912	3.973	-0.1
C	-99.821	3.106	-0.094
C	-100.262	1.779	-0.086
O	-101.076	-1.173	-0.071
O	-103.218	3.688	-0.1
C	-103.42	-2.903	-0.065
C	-100.876	5.419	-0.109
H	-100.367	5.806	0.782
H	-100.364	5.794	-1.003
H	-101.91	5.769	-0.113
H	-103.93	-3.28	0.829
H	-103.929	-3.288	-0.956
H	-102.386	-3.253	-0.063
H	-106.378	-1.709	-0.065
H	-97.917	4.228	-0.084
S	-98.908	0.684	-0.08
C	-98.433	3.274	-0.09
C	-97.776	2.041	-0.079
C	-114.314	0.795	-0.082
S	-113.214	-0.609	-0.157
C	-113.617	1.994	-0.023
C	-112.223	1.793	-0.039
C	-111.829	0.44	-0.101
N	-111.1	2.603	-0.015
C	-109.998	1.766	-0.038
C	-110.425	0.423	-0.101
C	-111.082	4.044	0.144
H	-110.191	4.452	-0.342
H	-111.079	4.34	1.2
H	-111.961	4.474	-0.343
H	-108.081	2.883	0.04
H	-114.111	2.957	0.034
C	-108.599	1.932	-0.021
S	-109.066	-0.66	-0.156
C	-107.931	0.716	-0.078
C	-124.434	2.37	-0.095
C	-123.748	3.588	-0.099
S	-123.334	0.987	-0.083
C	-120.536	2.004	-0.089
C	-120.097	3.447	-0.096
N	-121.252	4.227	-0.1
C	-122.365	3.388	-0.095
C	-121.955	2.05	-0.089
C	-119.631	0.963	-0.083
C	-120.072	-0.481	-0.074
N	-118.917	-1.261	-0.069
C	-117.805	-0.422	-0.073
C	-118.213	0.915	-0.082
O	-118.954	3.887	-0.098
O	-121.215	-0.92	-0.072
C	-121.254	5.674	-0.106
C	-118.916	-2.708	-0.06
H	-118.416	-3.108	-0.95
H	-118.415	-3.096	0.835
H	-119.958	-3.033	-0.057
H	-121.754	6.063	-1.001
H	-121.755	6.071	0.784
H	-120.212	5.998	-0.107
H	-124.241	4.554	-0.11
H	-115.929	-1.59	-0.081
S	-116.832	1.977	-0.086
C	-116.421	-0.625	-0.076
C	-115.734	0.593	-0.086
C	-132.237	2.246	-0.103
S	-131.103	3.622	-0.026
C	-131.569	1.03	-0.161
C	-130.171	1.196	-0.144
C	-129.743	2.539	-0.08
N	-129.068	0.36	-0.166
C	-127.945	1.169	-0.141
C	-128.34	2.522	-0.079
C	-129.085	-1.082	-0.324
H	-128.205	-1.511	0.162
H	-129.088	-1.377	-1.381
H	-129.975	-1.49	0.161
H	-126.057	0.005	-0.217
H	-132.087	0.079	-0.219
C	-126.551	0.968	-0.157
S	-126.954	3.572	-0.022
C	-125.854	2.167	-0.099
C	-142.392	0.922	-0.103
C	-141.737	-0.313	-0.098
S	-141.258	2.277	-0.114
C	-138.486	1.191	-0.105
C	-138.083	-0.261	-0.097
N	-139.257	-1.013	-0.094
C	-140.348	-0.147	-0.1
C	-139.906	1.18	-0.106
C	-137.556	2.21	-0.11
C	-137.961	3.664	-0.119
N	-136.787	4.416	-0.123
C	-135.696	3.55	-0.117
C	-136.137	2.223	-0.109
O	-136.951	-0.73	-0.094
O	-139.093	4.131	-0.122
C	-139.295	-2.459	-0.088
C	-136.751	5.862	-0.132
H	-136.242	6.249	0.759
H	-136.239	6.238	-1.026
H	-137.785	6.212	-0.136
H	-139.805	-2.837	0.806
H	-139.804	-2.844	-0.979
H	-138.261	-2.809	-0.086
H	-142.253	-1.266	-0.088
H	-133.792	4.671	-0.107
S	-134.783	1.127	-0.103
C	-134.308	3.718	-0.112
C	-133.651	2.484	-0.101
C	-150.189	1.238	-0.105
S	-149.089	-0.166	-0.18
C	-149.492	2.437	-0.046
C	-148.098	2.237	-0.061
C	-147.704	0.883	-0.124
N	-146.975	3.046	-0.038
C	-145.873	2.209	-0.061
C	-146.3	0.866	-0.124
C	-146.957	4.487	0.121
H	-146.066	4.895	-0.364
H	-146.954	4.783	1.177
H	-147.836	4.917	-0.366
H	-143.956	3.326	0.017
H	-149.986	3.401	0.011
C	-144.474	2.375	-0.043
S	-144.941	-0.217	-0.179
C	-143.807	1.159	-0.101
C	-160.309	2.813	-0.118
C	-159.623	4.031	-0.122
S	-159.209	1.43	-0.106
C	-156.411	2.448	-0.111
C	-155.972	3.89	-0.119
N	-157.127	4.67	-0.123
C	-158.24	3.831	-0.118
C	-157.83	2.493	-0.112
C	-155.506	1.406	-0.105
C	-155.947	-0.037	-0.097
N	-154.792	-0.818	-0.092
C	-153.68	0.021	-0.096
C	-154.088	1.359	-0.105
O	-154.829	4.331	-0.121
O	-157.09	-0.476	-0.094
C	-157.129	6.117	-0.129
C	-154.791	-2.265	-0.082
H	-154.291	-2.664	-0.973
H	-154.29	-2.653	0.812
H	-155.833	-2.589	-0.08
H	-157.629	6.507	-1.024
H	-157.63	6.514	0.761
H	-156.087	6.441	-0.13
H	-160.116	4.997	-0.133
H	-151.804	-1.147	-0.103
S	-152.707	2.42	-0.108
C	-152.296	-0.181	-0.099
C	-151.609	1.036	-0.109
C	-168.112	2.689	-0.125
S	-166.978	4.066	-0.049
C	-167.444	1.474	-0.183
C	-166.046	1.64	-0.166
C	-165.618	2.983	-0.103
N	-164.943	0.803	-0.189
C	-163.82	1.613	-0.164
C	-164.215	2.965	-0.102
C	-164.96	-0.639	-0.347
H	-164.08	-1.068	0.139
H	-164.963	-0.934	-1.404
H	-165.85	-1.047	0.139
H	-161.932	0.448	-0.24
H	-167.962	0.523	-0.241
C	-162.426	1.412	-0.18
S	-162.829	4.015	-0.045
C	-161.729	2.611	-0.122
H	10.925	0.6	-0.002
H	-169.189	2.791	-0.126
