352
TIGTFF_10
C	0.727	1.685	0.0
C	1.509	2.847	0.0
S	1.703	0.216	0.0
C	4.573	0.994	-0.0
C	5.133	2.396	0.0
N	4.049	3.27	0.0
C	2.869	2.528	0.0
C	3.163	1.16	0.0
C	5.385	-0.118	-0.0
C	4.825	-1.52	-0.0
N	5.909	-2.394	-0.0
C	7.089	-1.651	-0.0
C	6.796	-0.284	-0.0
O	6.31	2.733	0.0
O	3.648	-1.858	-0.0
C	4.168	4.713	0.0
C	5.79	-3.837	-0.0
H	6.257	-4.269	-0.893
H	6.257	-4.269	0.892
H	4.725	-4.074	-0.0
H	3.701	5.146	-0.892
H	3.701	5.145	0.893
H	5.233	4.95	0.0
H	1.092	3.845	0.0
H	8.868	-2.968	-0.0
S	8.257	0.658	-0.0
C	8.452	-1.97	-0.0
C	9.231	-0.811	-0.0
C	-3.169	0.912	0.0
C	-2.961	2.277	0.0
S	-1.601	0.103	-0.0
F	-1.261	3.963	0.0
F	-3.952	3.179	0.0
C	-1.609	2.667	0.0
C	-0.705	1.622	0.0
C	-12.902	2.674	0.0
C	-12.121	3.836	0.0
S	-11.926	1.205	0.0
C	-9.056	1.983	0.0
C	-8.497	3.385	0.0
N	-9.581	4.259	0.0
C	-10.76	3.517	0.0
C	-10.467	2.149	0.0
C	-8.245	0.871	0.0
C	-8.805	-0.531	0.0
N	-7.72	-1.405	0.0
C	-6.541	-0.662	0.0
C	-6.833	0.705	0.0
O	-7.32	3.722	0.0
O	-9.982	-0.869	0.0
C	-9.462	5.702	0.0
C	-7.839	-2.848	-0.0
H	-7.373	-3.28	-0.893
H	-7.372	-3.28	0.893
H	-8.904	-3.085	-0.0
H	-9.929	6.135	-0.892
H	-9.928	6.134	0.893
H	-8.397	5.939	0.0
H	-12.537	4.834	0.0
H	-4.761	-1.979	-0.0
S	-5.372	1.647	0.0
C	-5.178	-0.981	-0.0
C	-4.399	0.178	0.0
C	-16.798	1.901	0.0
C	-16.591	3.266	0.0
S	-15.231	1.092	0.0
F	-14.89	4.952	0.0
F	-17.581	4.168	0.0
C	-15.239	3.656	0.0
C	-14.334	2.611	0.0
C	-26.532	3.663	0.0
C	-25.75	4.825	0.0
S	-25.556	2.194	0.0
C	-22.686	2.972	0.0
C	-22.126	4.374	0.0
N	-23.21	5.248	0.0
C	-24.39	4.506	0.0
C	-24.096	3.138	0.0
C	-21.874	1.86	0.0
C	-22.434	0.458	0.0
N	-21.35	-0.416	0.0
C	-20.17	0.327	0.0
C	-20.463	1.694	0.0
O	-20.949	4.712	0.0
O	-23.611	0.121	0.0
C	-23.091	6.691	0.001
C	-21.469	-1.859	0.0
H	-21.002	-2.291	-0.892
H	-21.002	-2.291	0.893
H	-22.534	-2.096	0.0
H	-23.558	7.124	-0.892
H	-23.558	7.124	0.893
H	-22.026	6.928	0.0
H	-26.167	5.823	0.001
H	-18.391	-0.99	0.0
S	-19.002	2.636	0.0
C	-18.807	0.008	0.0
C	-18.029	1.167	0.0
C	-30.428	2.89	0.0
C	-30.22	4.255	0.0
S	-28.86	2.081	0.0
F	-28.52	5.941	0.001
F	-31.211	5.157	0.001
C	-28.868	4.645	0.001
C	-27.964	3.6	0.0
C	-40.161	4.652	0.001
C	-39.38	5.814	0.001
S	-39.185	3.183	0.001
C	-36.315	3.961	0.001
C	-35.756	5.363	0.001
N	-36.84	6.237	0.001
C	-38.019	5.495	0.001
C	-37.726	4.127	0.001
C	-35.504	2.849	0.0
C	-36.064	1.447	0.0
N	-34.979	0.573	0.0
C	-33.8	1.316	0.0
C	-34.092	2.683	0.0
O	-34.579	5.701	0.001
O	-37.241	1.11	0.0
C	-36.721	7.68	0.001
C	-35.098	-0.87	0.0
H	-34.632	-1.302	-0.892
H	-34.632	-1.302	0.893
H	-36.164	-1.107	0.0
H	-37.188	8.113	-0.892
H	-37.187	8.113	0.893
H	-35.656	7.917	0.001
H	-39.796	6.812	0.001
H	-32.02	-0.001	0.0
S	-32.631	3.625	0.001
C	-32.437	0.997	0.0
C	-31.658	2.156	0.0
C	-44.057	3.879	0.001
C	-43.85	5.244	0.001
S	-42.49	3.07	0.001
F	-42.149	6.93	0.001
F	-44.841	6.146	0.001
C	-42.498	5.634	0.001
C	-41.593	4.589	0.001
C	-53.791	5.641	0.001
C	-53.009	6.803	0.001
S	-52.815	4.172	0.001
C	-49.945	4.95	0.001
C	-49.385	6.352	0.001
N	-50.469	7.226	0.001
C	-51.649	6.484	0.001
C	-51.355	5.116	0.001
C	-49.133	3.838	0.001
C	-49.693	2.436	0.001
N	-48.609	1.562	0.001
C	-47.43	2.306	0.001
C	-47.722	3.672	0.001
O	-48.208	6.69	0.001
O	-50.87	2.099	0.001
C	-50.35	8.669	0.001
C	-48.728	0.12	0.001
H	-48.261	-0.313	-0.892
H	-48.261	-0.313	0.893
H	-49.793	-0.118	0.001
H	-50.817	9.102	-0.892
H	-50.817	9.102	0.894
H	-49.285	8.906	0.001
H	-53.426	7.801	0.001
H	-45.65	0.989	0.0
S	-46.261	4.614	0.001
C	-46.066	1.986	0.001
C	-45.288	3.145	0.001
C	-57.687	4.868	0.001
C	-57.479	6.233	0.001
S	-56.119	4.059	0.001
F	-55.779	7.919	0.001
F	-58.47	7.135	0.001
C	-56.127	6.623	0.001
C	-55.223	5.578	0.001
C	-67.42	6.63	0.001
C	-66.639	7.792	0.001
S	-66.444	5.161	0.001
C	-63.574	5.939	0.001
C	-63.015	7.341	0.001
N	-64.099	8.215	0.001
C	-65.278	7.473	0.001
C	-64.985	6.105	0.001
C	-62.763	4.827	0.001
C	-63.323	3.425	0.001
N	-62.238	2.551	0.001
C	-61.059	3.295	0.001
C	-61.351	4.661	0.001
O	-61.838	7.679	0.001
O	-64.5	3.088	0.001
C	-63.98	9.658	0.001
C	-62.357	1.109	0.001
H	-61.891	0.676	-0.892
H	-61.891	0.676	0.893
H	-63.423	0.871	0.001
H	-64.447	10.091	-0.891
H	-64.447	10.091	0.894
H	-62.915	9.895	0.001
H	-67.055	8.79	0.001
H	-59.279	1.978	0.001
S	-59.89	5.603	0.001
C	-59.696	2.975	0.001
C	-58.917	4.134	0.001
C	-71.316	5.857	0.001
C	-71.109	7.222	0.001
S	-69.749	5.048	0.001
F	-69.408	8.908	0.001
F	-72.1	8.124	0.001
C	-69.757	7.612	0.001
C	-68.852	6.567	0.001
C	-81.05	7.62	0.001
C	-80.268	8.781	0.001
S	-80.074	6.15	0.001
C	-77.204	6.928	0.001
C	-76.644	8.33	0.001
N	-77.728	9.204	0.001
C	-78.908	8.462	0.001
C	-78.614	7.094	0.001
C	-76.392	5.816	0.001
C	-76.952	4.414	0.001
N	-75.868	3.541	0.001
C	-74.689	4.284	0.001
C	-74.981	5.65	0.001
O	-75.467	8.668	0.001
O	-78.13	4.077	0.001
C	-77.609	10.647	0.001
C	-75.987	2.098	0.001
H	-75.52	1.665	-0.892
H	-75.52	1.665	0.893
H	-77.052	1.86	0.001
H	-78.076	11.08	-0.891
H	-78.076	11.08	0.894
H	-76.544	10.885	0.001
H	-80.685	9.779	0.001
H	-72.909	2.967	0.001
S	-73.52	6.592	0.001
C	-73.325	3.964	0.001
C	-72.547	5.123	0.001
C	-84.946	6.846	0.001
C	-84.739	8.211	0.001
S	-83.378	6.037	0.001
F	-83.038	9.897	0.001
F	-85.729	9.113	0.001
C	-83.386	8.601	0.001
C	-82.482	7.556	0.001
C	-94.679	8.609	0.001
C	-93.898	9.77	0.001
S	-93.703	7.139	0.001
C	-90.833	7.917	0.001
C	-90.274	9.319	0.001
N	-91.358	10.193	0.001
C	-92.537	9.451	0.001
C	-92.244	8.083	0.001
C	-90.022	6.805	0.001
C	-90.582	5.403	0.001
N	-89.497	4.53	0.001
C	-88.318	5.273	0.001
C	-88.61	6.639	0.001
O	-89.097	9.657	0.001
O	-91.759	5.066	0.001
C	-91.239	11.636	0.001
C	-89.616	3.087	0.001
H	-89.15	2.654	-0.891
H	-89.15	2.654	0.894
H	-90.682	2.849	0.001
H	-91.706	12.069	-0.891
H	-91.706	12.069	0.894
H	-90.174	11.874	0.001
H	-94.315	10.768	0.001
H	-86.538	3.956	0.001
S	-87.149	7.581	0.001
C	-86.955	4.953	0.001
C	-86.176	6.112	0.001
C	-98.575	7.835	0.001
C	-98.368	9.2	0.001
S	-97.008	7.026	0.001
F	-96.667	10.886	0.002
F	-99.359	10.102	0.002
C	-97.016	9.59	0.001
C	-96.112	8.545	0.001
C	-108.309	9.598	0.002
C	-107.527	10.759	0.002
S	-107.333	8.128	0.002
C	-104.463	8.906	0.002
C	-103.903	10.309	0.002
N	-104.988	11.182	0.002
C	-106.167	10.44	0.002
C	-105.873	9.072	0.002
C	-103.651	7.794	0.001
C	-104.211	6.392	0.001
N	-103.127	5.519	0.001
C	-101.948	6.262	0.001
C	-102.24	7.628	0.001
O	-102.726	10.646	0.002
O	-105.389	6.055	0.001
C	-104.868	12.625	0.002
C	-103.246	4.076	0.001
H	-102.779	3.643	-0.891
H	-102.779	3.643	0.894
H	-104.311	3.838	0.001
H	-105.335	13.058	-0.891
H	-105.335	13.058	0.894
H	-103.803	12.863	0.002
H	-107.944	11.757	0.002
H	-100.168	4.945	0.001
S	-100.779	8.57	0.001
C	-100.584	5.942	0.001
C	-99.806	7.101	0.001
C	-112.205	8.824	0.002
C	-111.998	10.189	0.002
S	-110.638	8.015	0.002
F	-110.297	11.875	0.002
F	-112.988	11.091	0.002
C	-110.645	10.579	0.002
C	-109.741	9.534	0.002
C	-121.938	10.587	0.002
C	-121.157	11.748	0.002
S	-120.962	9.117	0.002
C	-118.092	9.895	0.002
C	-117.533	11.298	0.002
N	-118.617	12.171	0.002
C	-119.796	11.429	0.002
C	-119.503	10.061	0.002
C	-117.281	8.783	0.002
C	-117.841	7.381	0.002
N	-116.756	6.508	0.002
C	-115.577	7.251	0.002
C	-115.869	8.617	0.002
O	-116.356	11.635	0.002
O	-119.018	7.044	0.002
C	-118.498	13.614	0.002
C	-116.875	5.065	0.001
H	-116.409	4.632	-0.891
H	-116.409	4.632	0.894
H	-117.941	4.827	0.001
H	-118.965	14.047	-0.891
H	-118.965	14.047	0.894
H	-117.433	13.852	0.002
H	-121.574	12.746	0.002
H	-113.797	5.934	0.001
S	-114.408	9.559	0.002
C	-114.214	6.931	0.002
C	-113.435	8.09	0.002
C	-125.834	9.813	0.002
C	-125.627	11.178	0.002
S	-124.267	9.004	0.002
F	-123.926	12.864	0.002
F	-126.618	12.08	0.002
C	-124.275	11.568	0.002
C	-123.371	10.523	0.002
H	10.313	-0.814	-0.0
H	-126.798	9.321	0.002
