512
TTIGDPT_10
C	1.039	-1.027	-0.007
S	2.11	-2.447	0.067
C	1.763	0.153	-0.05
C	3.158	-0.059	-0.03
C	3.521	-1.417	0.026
S	4.539	1.02	-0.071
C	5.613	-0.369	-0.012
C	4.911	-1.58	0.035
C	7.006	-0.657	0.005
C	7.1	-2.16	0.067
N	5.796	-2.654	0.082
C	5.467	-4.063	0.139
O	8.109	-2.853	0.099
H	4.887	-4.297	1.04
H	4.898	-4.372	-0.745
H	6.41	-4.611	0.168
C	8.131	0.143	-0.024
C	8.037	1.647	-0.086
N	9.34	2.141	-0.1
C	10.225	1.068	-0.053
C	9.523	-0.143	-0.007
C	11.615	0.906	-0.044
C	11.979	-0.451	0.012
S	10.6	-1.532	0.053
C	9.669	3.551	-0.158
H	10.238	3.86	0.727
H	10.249	3.784	-1.058
H	8.726	4.099	-0.187
O	7.027	2.339	-0.118
H	1.294	1.129	-0.106
H	13.845	-1.637	0.097
C	13.375	-0.662	0.036
S	13.026	1.937	-0.085
C	14.097	0.518	-0.005
C	-6.763	-0.992	-0.005
S	-5.602	0.353	0.134
C	-6.125	-2.219	-0.111
C	-4.721	-2.084	-0.085
C	-4.266	-0.756	0.031
N	-3.636	-2.943	-0.143
C	-2.497	-2.158	-0.088
C	-2.862	-0.802	0.03
C	-3.683	-4.375	-0.365
H	-2.813	-4.844	0.101
H	-3.692	-4.624	-1.434
H	-4.582	-4.786	0.103
H	-0.631	-3.354	-0.225
H	-6.662	-3.154	-0.218
C	-1.104	-2.385	-0.116
S	-1.455	0.216	0.129
C	-0.387	-1.204	-0.012
C	-21.101	1.686	0.035
S	-19.938	3.032	-0.042
C	-20.456	0.461	0.076
C	-19.05	0.58	0.053
C	-18.598	1.91	-0.004
S	-17.744	-0.589	0.091
C	-16.58	0.726	0.029
C	-17.2	1.981	-0.016
C	-15.171	0.921	0.009
C	-14.978	2.414	-0.053
N	-16.247	2.994	-0.065
C	-16.482	4.422	-0.122
O	-13.926	3.04	-0.088
H	-17.046	4.694	-1.021
H	-17.027	4.768	0.764
H	-15.504	4.906	-0.153
C	-14.102	0.048	0.036
C	-14.296	-1.446	0.098
N	-13.028	-2.026	0.11
C	-12.074	-1.013	0.06
C	-12.694	0.242	0.015
C	-10.676	-0.944	0.048
C	-10.223	0.387	-0.009
S	-11.528	1.556	-0.047
C	-12.793	-3.454	0.166
H	-12.248	-3.8	-0.72
H	-12.227	-3.725	1.065
H	-13.77	-3.939	0.197
O	-15.348	-2.07	0.132
H	-20.989	-0.482	0.133
H	-8.282	1.446	-0.099
C	-8.816	0.504	-0.036
S	-9.336	-2.066	0.085
C	-8.174	-0.721	0.003
C	-28.888	2.169	0.05
S	-27.819	0.749	-0.091
C	-28.17	3.35	0.155
C	-26.778	3.123	0.126
C	-26.412	1.767	0.009
N	-25.638	3.907	0.181
C	-24.553	3.049	0.123
C	-25.008	1.72	0.007
C	-25.59	5.339	0.403
H	-24.692	5.75	-0.065
H	-25.58	5.588	1.472
H	-26.46	5.809	-0.062
H	-22.612	4.119	0.256
H	-28.644	4.319	0.263
C	-23.149	3.183	0.149
S	-23.672	0.611	-0.096
C	-22.511	1.957	0.043
C	-43.371	0.447	0.042
S	-42.301	-0.973	0.116
C	-42.647	1.627	-0.0
C	-41.252	1.415	0.019
C	-40.889	0.057	0.075
S	-39.872	2.494	-0.022
C	-38.797	1.105	0.038
C	-39.499	-0.106	0.085
C	-37.404	0.817	0.054
C	-37.311	-0.686	0.116
N	-38.615	-1.18	0.131
C	-38.944	-2.589	0.189
O	-36.302	-1.379	0.148
H	-39.523	-2.823	1.089
H	-39.513	-2.898	-0.696
H	-38.0	-3.137	0.217
C	-36.28	1.617	0.025
C	-36.374	3.121	-0.036
N	-35.07	3.615	-0.051
C	-34.186	2.542	-0.004
C	-34.887	1.33	0.043
C	-32.796	2.38	0.005
C	-32.432	1.022	0.061
S	-33.811	-0.058	0.102
C	-34.741	5.025	-0.108
H	-34.173	5.333	0.776
H	-34.161	5.258	-1.009
H	-35.685	5.573	-0.138
O	-37.383	3.813	-0.069
H	-43.117	2.603	-0.056
H	-30.565	-0.163	0.147
C	-31.036	0.812	0.085
S	-31.384	3.411	-0.035
C	-30.313	1.992	0.045
C	-51.173	0.482	0.044
S	-50.013	1.827	0.183
C	-50.536	-0.745	-0.061
C	-49.132	-0.61	-0.036
C	-48.677	0.718	0.08
N	-48.046	-1.469	-0.094
C	-46.907	-0.684	-0.038
C	-47.272	0.672	0.079
C	-48.094	-2.901	-0.316
H	-47.224	-3.37	0.151
H	-48.103	-3.15	-1.384
H	-48.992	-3.312	0.152
H	-45.041	-1.881	-0.175
H	-51.073	-1.681	-0.168
C	-45.515	-0.911	-0.067
S	-45.866	1.69	0.179
C	-44.797	0.27	0.037
C	-65.511	3.16	0.084
S	-64.349	4.506	0.008
C	-64.867	1.935	0.125
C	-63.461	2.053	0.102
C	-63.009	3.384	0.045
S	-62.155	0.885	0.14
C	-60.99	2.2	0.078
C	-61.611	3.455	0.033
C	-59.582	2.395	0.058
C	-59.389	3.888	-0.004
N	-60.657	4.468	-0.016
C	-60.892	5.896	-0.073
O	-58.336	4.513	-0.038
H	-61.457	6.167	-0.972
H	-61.437	6.242	0.813
H	-59.914	6.38	-0.103
C	-58.512	1.522	0.085
C	-58.706	0.028	0.147
N	-57.438	-0.552	0.159
C	-56.484	0.46	0.11
C	-57.104	1.716	0.064
C	-55.086	0.53	0.097
C	-54.634	1.86	0.04
S	-55.938	3.03	0.002
C	-57.203	-1.98	0.215
H	-56.658	-2.326	-0.67
H	-56.638	-2.251	1.114
H	-58.181	-2.465	0.247
O	-59.759	-0.596	0.182
H	-65.399	0.992	0.182
H	-52.693	2.92	-0.049
C	-53.227	1.978	0.013
S	-53.746	-0.592	0.135
C	-52.584	0.753	0.052
C	-73.298	3.643	0.1
S	-72.23	2.223	-0.042
C	-72.58	4.824	0.204
C	-71.188	4.597	0.175
C	-70.823	3.241	0.058
N	-70.048	5.381	0.23
C	-68.964	4.523	0.172
C	-69.418	3.194	0.056
C	-70.0	6.813	0.453
H	-69.102	7.224	-0.016
H	-69.99	7.062	1.521
H	-70.871	7.283	-0.013
H	-67.022	5.593	0.305
H	-73.054	5.793	0.312
C	-67.559	4.657	0.198
S	-68.082	2.085	-0.047
C	-66.922	3.431	0.092
C	-87.782	1.921	0.091
S	-86.711	0.5	0.165
C	-87.058	3.101	0.049
C	-85.663	2.889	0.069
C	-85.3	1.531	0.124
S	-84.282	3.968	0.028
C	-83.208	2.578	0.087
C	-83.91	1.367	0.134
C	-81.815	2.291	0.104
C	-81.721	0.788	0.165
N	-83.025	0.294	0.181
C	-83.354	-1.115	0.238
O	-80.712	0.094	0.198
H	-83.933	-1.349	1.139
H	-83.923	-1.424	-0.646
H	-82.411	-1.663	0.266
C	-80.69	3.091	0.075
C	-80.784	4.594	0.013
N	-79.481	5.089	-0.002
C	-78.596	4.016	0.045
C	-79.298	2.804	0.092
C	-77.206	3.854	0.055
C	-76.842	2.496	0.111
S	-78.221	1.416	0.151
C	-79.152	6.499	-0.059
H	-78.583	6.807	0.825
H	-78.572	6.732	-0.959
H	-80.095	7.047	-0.088
O	-81.794	5.287	-0.019
H	-87.527	4.077	-0.007
H	-74.976	1.311	0.196
C	-75.446	2.285	0.135
S	-75.794	4.885	0.014
C	-74.724	3.466	0.094
C	-95.584	1.955	0.093
S	-94.423	3.301	0.232
C	-94.946	0.729	-0.012
C	-93.542	0.863	0.013
C	-93.087	2.192	0.13
N	-92.457	0.005	-0.045
C	-91.317	0.79	0.011
C	-91.683	2.145	0.128
C	-92.504	-1.427	-0.267
H	-91.634	-1.896	0.2
H	-92.513	-1.676	-1.335
H	-93.403	-1.838	0.201
H	-89.452	-0.407	-0.126
H	-95.483	-0.207	-0.119
C	-89.925	0.562	-0.018
S	-90.276	3.164	0.228
C	-89.207	1.744	0.086
C	-109.921	4.634	0.133
S	-108.759	5.98	0.057
C	-109.277	3.408	0.174
C	-107.871	3.527	0.151
C	-107.419	4.858	0.095
S	-106.565	2.359	0.189
C	-105.401	3.674	0.128
C	-106.021	4.929	0.082
C	-103.992	3.869	0.108
C	-103.799	5.362	0.045
N	-105.067	5.941	0.033
C	-105.303	7.37	-0.023
O	-102.746	5.987	0.011
H	-105.867	7.641	-0.923
H	-105.848	7.715	0.862
H	-104.325	7.854	-0.054
C	-102.923	2.996	0.134
C	-103.116	1.502	0.196
N	-101.849	0.922	0.208
C	-100.895	1.934	0.159
C	-101.515	3.19	0.114
C	-99.497	2.004	0.146
C	-99.044	3.334	0.089
S	-100.349	4.504	0.052
C	-101.613	-0.506	0.265
H	-101.069	-0.852	-0.621
H	-101.048	-0.778	1.164
H	-102.591	-0.991	0.296
O	-104.169	0.878	0.231
H	-109.81	2.466	0.231
H	-97.103	4.393	-0.0
C	-97.637	3.452	0.062
S	-98.157	0.881	0.184
C	-96.995	2.226	0.101
C	-117.708	5.116	0.149
S	-116.64	3.697	0.007
C	-116.991	6.298	0.253
C	-115.599	6.07	0.224
C	-115.233	4.715	0.107
N	-114.459	6.855	0.28
C	-113.374	5.996	0.222
C	-113.829	4.668	0.106
C	-114.411	8.287	0.502
H	-113.512	8.698	0.033
H	-114.401	8.536	1.57
H	-115.281	8.757	0.036
H	-111.433	7.067	0.355
H	-117.464	7.267	0.361
C	-111.97	6.131	0.247
S	-112.493	3.559	0.003
C	-111.332	4.905	0.142
C	-132.192	3.394	0.141
S	-131.122	1.974	0.215
C	-131.468	4.574	0.098
C	-130.073	4.363	0.118
C	-129.71	3.005	0.174
S	-128.692	5.442	0.077
C	-127.618	4.052	0.136
C	-128.32	2.841	0.183
C	-126.225	3.765	0.153
C	-126.131	2.262	0.215
N	-127.435	1.768	0.23
C	-127.765	0.358	0.287
O	-125.122	1.568	0.247
H	-128.344	0.125	1.188
H	-128.334	0.05	-0.597
H	-126.821	-0.19	0.316
C	-125.1	4.564	0.124
C	-125.195	6.068	0.062
N	-123.891	6.563	0.047
C	-123.007	5.49	0.094
C	-123.708	4.278	0.141
C	-121.616	5.327	0.104
C	-121.252	3.97	0.16
S	-122.632	2.889	0.201
C	-123.562	7.972	-0.01
H	-122.993	8.281	0.875
H	-122.982	8.206	-0.91
H	-124.505	8.521	-0.039
O	-126.204	6.761	0.03
H	-131.937	5.55	0.042
H	-119.386	2.784	0.245
C	-119.857	3.759	0.184
S	-120.205	6.359	0.063
C	-119.134	4.94	0.143
C	-139.994	3.429	0.143
S	-138.834	4.775	0.282
C	-139.357	2.203	0.037
C	-137.952	2.337	0.063
C	-137.498	3.666	0.179
N	-136.867	1.479	0.005
C	-135.728	2.264	0.06
C	-136.093	3.619	0.177
C	-136.915	0.047	-0.217
H	-136.045	-0.422	0.249
H	-136.923	-0.202	-1.286
H	-137.813	-0.364	0.25
H	-133.862	1.067	-0.077
H	-139.894	1.267	-0.07
C	-134.336	2.036	0.031
S	-134.686	4.637	0.277
C	-133.618	3.218	0.135
C	-154.332	6.108	0.183
S	-153.17	7.454	0.106
C	-153.688	4.882	0.224
C	-152.282	5.001	0.201
C	-151.83	6.332	0.144
S	-150.975	3.833	0.239
C	-149.811	5.148	0.177
C	-150.432	6.403	0.131
C	-148.402	5.343	0.157
C	-148.209	6.836	0.095
N	-149.478	7.415	0.082
C	-149.713	8.843	0.026
O	-147.157	7.461	0.06
H	-150.277	9.115	-0.874
H	-150.258	9.189	0.911
H	-148.735	9.328	-0.005
C	-147.333	4.47	0.183
C	-147.527	2.976	0.246
N	-146.259	2.396	0.257
C	-145.305	3.408	0.208
C	-145.925	4.664	0.163
C	-143.907	3.478	0.195
C	-143.454	4.808	0.139
S	-144.759	5.978	0.101
C	-146.024	0.968	0.314
H	-145.479	0.622	-0.572
H	-145.459	0.696	1.213
H	-147.001	0.483	0.345
O	-148.58	2.351	0.28
H	-154.22	3.94	0.281
H	-141.514	5.867	0.049
C	-142.048	4.926	0.111
S	-142.567	2.355	0.233
C	-141.405	3.7	0.151
C	-162.119	6.59	0.198
S	-161.05	5.171	0.057
C	-161.401	7.772	0.302
C	-160.009	7.544	0.274
C	-159.644	6.189	0.156
N	-158.869	8.329	0.329
C	-157.785	7.47	0.271
C	-158.239	6.142	0.155
C	-158.821	9.761	0.551
H	-157.923	10.171	0.082
H	-158.811	10.01	1.62
H	-159.691	10.23	0.085
H	-155.843	8.541	0.404
H	-161.875	8.741	0.41
C	-156.38	7.605	0.297
S	-156.903	5.033	0.052
C	-155.743	6.379	0.191
C	-176.603	4.868	0.19
S	-175.532	3.448	0.264
C	-175.879	6.048	0.147
C	-174.484	5.837	0.167
C	-174.121	4.479	0.223
S	-173.103	6.916	0.126
C	-172.028	5.526	0.185
C	-172.73	4.315	0.232
C	-170.635	5.238	0.202
C	-170.542	3.736	0.264
N	-171.846	3.242	0.279
C	-172.175	1.832	0.336
O	-169.533	3.042	0.296
H	-172.754	1.599	1.237
H	-172.744	1.523	-0.548
H	-171.231	1.284	0.365
C	-169.511	6.038	0.173
C	-169.605	7.542	0.111
N	-168.302	8.037	0.097
C	-167.417	6.963	0.144
C	-168.119	5.752	0.19
C	-166.027	6.801	0.153
C	-165.663	5.444	0.209
S	-167.042	4.363	0.25
C	-167.972	9.446	0.039
H	-167.404	9.755	0.924
H	-167.392	9.68	-0.861
H	-168.916	9.995	0.01
O	-170.614	8.235	0.079
H	-176.348	7.024	0.091
H	-163.796	4.258	0.294
C	-164.267	5.233	0.233
S	-164.615	7.832	0.112
C	-163.545	6.413	0.192
C	-184.405	4.903	0.192
S	-183.244	6.249	0.331
C	-183.767	3.677	0.086
C	-182.363	3.811	0.112
C	-181.908	5.14	0.228
N	-181.278	2.953	0.054
C	-180.138	3.738	0.109
C	-180.504	5.093	0.227
C	-181.325	1.521	-0.168
H	-180.455	1.052	0.298
H	-181.334	1.272	-1.237
H	-182.224	1.11	0.3
H	-178.272	2.541	-0.028
H	-184.304	2.741	-0.021
C	-178.746	3.51	0.081
S	-179.097	6.111	0.326
C	-178.028	4.691	0.185
C	-198.742	7.581	0.232
S	-197.58	8.927	0.155
C	-198.098	6.356	0.273
C	-196.692	6.475	0.25
C	-196.24	7.806	0.193
S	-195.386	5.307	0.288
C	-194.222	6.622	0.226
C	-194.842	7.877	0.181
C	-192.813	6.817	0.206
C	-192.62	8.31	0.144
N	-193.888	8.889	0.132
C	-194.123	10.317	0.075
O	-191.567	8.935	0.109
H	-194.688	10.589	-0.824
H	-194.669	10.663	0.961
H	-193.146	10.802	0.044
C	-191.744	5.944	0.233
C	-191.937	4.45	0.295
N	-190.669	3.87	0.307
C	-189.716	4.882	0.257
C	-190.336	6.137	0.212
C	-188.318	4.952	0.245
C	-187.865	6.282	0.188
S	-189.169	7.451	0.15
C	-190.434	2.441	0.363
H	-189.889	2.096	-0.523
H	-189.869	2.17	1.262
H	-191.412	1.957	0.394
O	-192.99	3.825	0.329
H	-198.631	5.413	0.33
H	-185.924	7.341	0.098
C	-186.458	6.4	0.161
S	-186.978	3.829	0.282
C	-185.815	5.174	0.2
C	-206.529	8.064	0.247
S	-205.461	6.644	0.106
C	-205.812	9.245	0.351
C	-204.419	9.018	0.323
C	-204.054	7.662	0.206
N	-203.28	9.803	0.378
C	-202.195	8.944	0.32
C	-202.65	7.616	0.204
C	-203.232	11.235	0.6
H	-202.333	11.645	0.132
H	-203.221	11.484	1.669
H	-204.102	11.704	0.135
H	-200.254	10.014	0.453
H	-206.285	10.215	0.46
C	-200.791	9.079	0.346
S	-201.314	6.507	0.101
C	-200.153	7.852	0.24
H	15.178	0.571	0.01
H	-207.61	8.01	0.252
