452
TTIGBT_10
C	0.6	-0.082	0.0
S	1.582	-1.566	0.0
C	1.402	1.053	0.0
C	2.777	0.76	0.0
C	3.049	-0.621	0.0
S	4.222	1.756	0.0
C	5.205	0.298	0.0
C	4.427	-0.868	-0.0
C	6.576	-0.078	-0.0
C	6.573	-1.588	-0.0
N	5.241	-1.997	-0.0
C	4.819	-3.384	-0.0
O	7.536	-2.342	-0.0
H	4.228	-3.615	0.893
H	4.228	-3.615	-0.893
H	5.724	-3.994	-0.0
C	7.748	0.649	-0.0
C	7.752	2.158	-0.0
N	9.085	2.566	0.0
C	9.897	1.436	-0.0
C	9.12	0.271	-0.0
C	11.275	1.183	-0.0
C	11.548	-0.195	-0.0
S	10.102	-1.185	-0.0
C	9.506	3.952	0.0
H	10.097	4.184	0.893
H	10.097	4.184	-0.893
H	8.601	4.562	0.0
O	6.79	2.914	0.0
H	1.005	2.061	0.0
H	13.342	-1.5	-0.0
C	12.926	-0.502	-0.0
S	12.747	2.118	-0.0
C	13.727	0.627	-0.0
C	-3.817	-0.075	0.0
C	-3.079	-1.316	0.0
C	-3.023	1.07	0.0
N	-3.606	-2.544	0.0
N	-1.102	-2.553	0.0
S	-2.357	-3.612	0.0
H	-1.116	2.02	0.0
H	-3.502	2.044	0.0
C	-1.615	1.057	0.0
C	-1.621	-1.325	0.0
C	-0.851	-0.108	0.0
C	-18.391	-0.729	0.0
S	-17.409	-2.213	0.0
C	-17.589	0.406	0.0
C	-16.214	0.113	0.0
C	-15.942	-1.268	0.0
S	-14.769	1.108	0.0
C	-13.786	-0.349	0.0
C	-14.564	-1.515	0.0
C	-12.415	-0.725	0.0
C	-12.418	-2.235	0.0
N	-13.75	-2.644	0.0
C	-14.172	-4.031	0.0
O	-11.455	-2.99	0.0
H	-14.763	-4.262	0.893
H	-14.764	-4.262	-0.892
H	-13.267	-4.641	-0.0
C	-11.243	0.002	0.0
C	-11.239	1.511	0.0
N	-9.906	1.919	0.0
C	-9.094	0.789	0.0
C	-9.871	-0.376	0.0
C	-7.716	0.536	0.0
C	-7.443	-0.843	0.0
S	-8.889	-1.833	0.0
C	-9.485	3.305	0.0
H	-8.894	3.537	0.894
H	-8.894	3.537	-0.893
H	-10.39	3.915	0.001
O	-12.201	2.267	0.0
H	-17.986	1.414	0.001
H	-5.649	-2.147	0.0
C	-6.065	-1.149	0.0
S	-6.244	1.471	0.0
C	-5.264	-0.021	0.0
C	-22.808	-0.722	0.001
C	-22.07	-1.964	0.001
C	-22.014	0.422	0.001
N	-22.597	-3.191	0.001
N	-20.093	-3.2	0.001
S	-21.348	-4.259	0.001
H	-20.107	1.373	0.0
H	-22.494	1.397	0.0
C	-20.606	0.41	0.0
C	-20.612	-1.972	0.001
C	-19.842	-0.755	0.0
C	-37.383	-1.376	0.001
S	-36.4	-2.86	0.001
C	-36.58	-0.241	0.001
C	-35.205	-0.534	0.001
C	-34.933	-1.915	0.001
S	-33.76	0.461	0.001
C	-32.777	-0.996	0.001
C	-33.555	-2.162	0.001
C	-31.406	-1.372	0.001
C	-31.409	-2.882	0.001
N	-32.741	-3.291	0.001
C	-33.163	-4.678	0.001
O	-30.446	-3.637	0.001
H	-33.754	-4.91	0.894
H	-33.755	-4.909	-0.892
H	-32.258	-5.289	0.0
C	-30.234	-0.646	0.001
C	-30.23	0.863	0.001
N	-28.898	1.271	0.001
C	-28.085	0.142	0.001
C	-28.862	-1.023	0.001
C	-26.707	-0.111	0.001
C	-26.434	-1.49	0.001
S	-27.88	-2.48	0.001
C	-28.476	2.658	0.001
H	-27.885	2.89	0.894
H	-27.885	2.89	-0.893
H	-29.381	3.268	0.001
O	-31.192	1.62	0.001
H	-36.977	0.767	0.001
H	-24.64	-2.794	0.0
C	-25.056	-1.796	0.001
S	-25.235	0.823	0.001
C	-24.255	-0.668	0.001
C	-41.799	-1.369	0.001
C	-41.062	-2.611	0.001
C	-41.005	-0.225	0.001
N	-41.588	-3.839	0.001
N	-39.084	-3.847	0.001
S	-40.339	-4.906	0.001
H	-39.098	0.725	0.001
H	-41.485	0.75	0.001
C	-39.597	-0.237	0.001
C	-39.604	-2.619	0.001
C	-38.833	-1.402	0.001
C	-56.374	-2.023	0.001
S	-55.391	-3.508	0.001
C	-55.571	-0.888	0.001
C	-54.196	-1.182	0.001
C	-53.924	-2.562	0.001
S	-52.751	-0.186	0.001
C	-51.768	-1.644	0.001
C	-52.546	-2.81	0.001
C	-50.398	-2.019	0.001
C	-50.401	-3.53	0.001
N	-51.732	-3.938	0.001
C	-52.154	-5.325	0.001
O	-49.437	-4.284	0.001
H	-52.745	-5.557	0.894
H	-52.746	-5.557	-0.892
H	-51.249	-5.936	0.001
C	-49.225	-1.293	0.001
C	-49.221	0.216	0.001
N	-47.889	0.624	0.001
C	-47.076	-0.505	0.001
C	-47.853	-1.671	0.001
C	-45.698	-0.758	0.001
C	-45.425	-2.137	0.001
S	-46.872	-3.127	0.001
C	-47.467	2.011	0.001
H	-46.876	2.243	0.894
H	-46.876	2.243	-0.892
H	-48.372	2.621	0.002
O	-50.183	0.973	0.001
H	-55.968	0.119	0.001
H	-43.631	-3.441	0.001
C	-44.047	-2.443	0.001
S	-44.226	0.176	0.001
C	-43.246	-1.315	0.001
C	-60.79	-2.017	0.001
C	-60.053	-3.258	0.001
C	-59.996	-0.872	0.001
N	-60.579	-4.486	0.001
N	-58.075	-4.495	0.001
S	-59.331	-5.553	0.001
H	-58.089	0.078	0.001
H	-60.476	0.102	0.001
C	-58.588	-0.884	0.001
C	-58.595	-3.266	0.001
C	-57.824	-2.049	0.001
C	-75.365	-2.671	0.002
S	-74.382	-4.155	0.002
C	-74.562	-1.535	0.002
C	-73.187	-1.829	0.002
C	-72.915	-3.209	0.001
S	-71.742	-0.833	0.002
C	-70.76	-2.291	0.001
C	-71.537	-3.457	0.001
C	-69.389	-2.666	0.001
C	-69.392	-4.177	0.001
N	-70.723	-4.586	0.001
C	-71.145	-5.973	0.001
O	-68.428	-4.931	0.001
H	-71.736	-6.204	0.895
H	-71.737	-6.204	-0.891
H	-70.24	-6.583	0.001
C	-68.216	-1.94	0.001
C	-68.212	-0.431	0.001
N	-66.88	-0.023	0.001
C	-66.067	-1.152	0.001
C	-66.844	-2.318	0.001
C	-64.689	-1.405	0.001
C	-64.416	-2.784	0.001
S	-65.863	-3.774	0.001
C	-66.458	1.364	0.002
H	-65.867	1.595	0.895
H	-65.867	1.596	-0.892
H	-67.363	1.974	0.002
O	-69.175	0.326	0.002
H	-74.959	-0.528	0.002
H	-62.622	-4.088	0.001
C	-63.038	-3.09	0.001
S	-63.217	-0.471	0.001
C	-62.237	-1.962	0.001
C	-79.781	-2.664	0.002
C	-79.044	-3.905	0.002
C	-78.987	-1.519	0.002
N	-79.57	-5.133	0.002
N	-77.066	-5.142	0.002
S	-78.322	-6.2	0.002
H	-77.08	-0.569	0.002
H	-79.467	-0.545	0.002
C	-77.58	-1.531	0.002
C	-77.586	-3.913	0.002
C	-76.816	-2.696	0.002
C	-94.356	-3.318	0.002
S	-93.373	-4.802	0.002
C	-93.553	-2.183	0.002
C	-92.178	-2.476	0.002
C	-91.906	-3.857	0.002
S	-90.733	-1.48	0.002
C	-89.751	-2.938	0.002
C	-90.528	-4.104	0.002
C	-88.38	-3.314	0.002
C	-88.383	-4.824	0.002
N	-89.714	-5.233	0.002
C	-90.136	-6.62	0.002
O	-87.419	-5.578	0.002
H	-90.727	-6.851	0.895
H	-90.728	-6.851	-0.891
H	-89.231	-7.23	0.001
C	-87.207	-2.587	0.002
C	-87.203	-1.078	0.002
N	-85.871	-0.67	0.002
C	-85.058	-1.8	0.002
C	-85.835	-2.965	0.002
C	-83.68	-2.053	0.002
C	-83.408	-3.431	0.002
S	-84.854	-4.421	0.002
C	-85.449	0.717	0.002
H	-84.858	0.948	0.895
H	-84.858	0.949	-0.891
H	-86.354	1.327	0.002
O	-88.166	-0.322	0.002
H	-93.95	-1.175	0.002
H	-81.613	-4.736	0.002
C	-82.029	-3.737	0.002
S	-82.208	-1.118	0.002
C	-81.228	-2.609	0.002
C	-98.772	-3.311	0.002
C	-98.035	-4.552	0.002
C	-97.978	-2.166	0.002
N	-98.561	-5.78	0.002
N	-96.057	-5.789	0.002
S	-97.313	-6.848	0.002
H	-96.071	-1.216	0.002
H	-98.458	-1.192	0.002
C	-96.571	-2.179	0.002
C	-96.577	-4.56	0.002
C	-95.807	-3.344	0.002
C	-113.347	-3.965	0.002
S	-112.364	-5.449	0.002
C	-112.544	-2.83	0.002
C	-111.169	-3.123	0.002
C	-110.897	-4.504	0.002
S	-109.724	-2.127	0.002
C	-108.742	-3.585	0.002
C	-109.519	-4.751	0.002
C	-107.371	-3.961	0.002
C	-107.374	-5.471	0.002
N	-108.705	-5.88	0.002
C	-109.127	-7.267	0.002
O	-106.41	-6.225	0.002
H	-109.718	-7.498	0.895
H	-109.719	-7.498	-0.891
H	-108.222	-7.877	0.002
C	-106.198	-3.234	0.002
C	-106.194	-1.725	0.002
N	-104.862	-1.317	0.002
C	-104.049	-2.447	0.002
C	-104.826	-3.612	0.002
C	-102.671	-2.7	0.002
C	-102.399	-4.078	0.002
S	-103.845	-5.068	0.002
C	-104.44	0.069	0.002
H	-103.849	0.301	0.895
H	-103.85	0.301	-0.891
H	-105.345	0.679	0.003
O	-107.157	-0.969	0.002
H	-112.941	-1.822	0.002
H	-100.604	-5.383	0.002
C	-101.02	-4.385	0.002
S	-101.199	-1.765	0.002
C	-100.219	-3.256	0.002
C	-117.763	-3.958	0.002
C	-117.026	-5.199	0.002
C	-116.969	-2.813	0.002
N	-117.552	-6.427	0.002
N	-115.048	-6.436	0.002
S	-116.304	-7.495	0.002
H	-115.062	-1.863	0.002
H	-117.449	-1.839	0.002
C	-115.562	-2.826	0.002
C	-115.568	-5.208	0.002
C	-114.798	-3.991	0.002
C	-132.338	-4.612	0.003
S	-131.355	-6.096	0.003
C	-131.535	-3.477	0.003
C	-130.161	-3.77	0.003
C	-129.889	-5.151	0.003
S	-128.715	-2.775	0.003
C	-127.733	-4.232	0.003
C	-128.51	-5.398	0.003
C	-126.362	-4.608	0.003
C	-126.365	-6.118	0.002
N	-127.697	-6.527	0.002
C	-128.118	-7.914	0.003
O	-125.401	-6.873	0.002
H	-128.709	-8.145	0.896
H	-128.71	-8.145	-0.89
H	-127.213	-8.524	0.002
C	-125.189	-3.881	0.003
C	-125.185	-2.372	0.003
N	-123.853	-1.964	0.003
C	-123.04	-3.094	0.003
C	-123.817	-4.259	0.002
C	-121.662	-3.347	0.002
C	-121.39	-4.726	0.002
S	-122.836	-5.716	0.002
C	-123.431	-0.578	0.003
H	-122.84	-0.346	0.896
H	-122.841	-0.346	-0.891
H	-124.336	0.032	0.003
O	-126.148	-1.616	0.003
H	-131.932	-2.469	0.003
H	-119.596	-6.03	0.002
C	-120.011	-5.032	0.002
S	-120.19	-2.412	0.003
C	-119.21	-3.904	0.002
C	-136.754	-4.605	0.003
C	-136.017	-5.847	0.003
C	-135.96	-3.461	0.003
N	-136.543	-7.074	0.003
N	-134.039	-7.083	0.003
S	-135.295	-8.142	0.003
H	-134.053	-2.51	0.003
H	-136.44	-2.486	0.003
C	-134.553	-3.473	0.003
C	-134.559	-5.855	0.003
C	-133.789	-4.638	0.003
C	-151.329	-5.259	0.003
S	-150.346	-6.743	0.003
C	-150.526	-4.124	0.003
C	-149.152	-4.417	0.003
C	-148.88	-5.798	0.003
S	-147.706	-3.422	0.003
C	-146.724	-4.879	0.003
C	-147.501	-6.045	0.003
C	-145.353	-5.255	0.003
C	-145.356	-6.765	0.003
N	-146.688	-7.174	0.003
C	-147.109	-8.561	0.003
O	-144.392	-7.52	0.003
H	-147.7	-8.792	0.896
H	-147.701	-8.792	-0.89
H	-146.204	-9.172	0.003
C	-144.18	-4.529	0.003
C	-144.176	-3.02	0.003
N	-142.844	-2.611	0.003
C	-142.031	-3.741	0.003
C	-142.808	-4.906	0.003
C	-140.654	-3.994	0.003
C	-140.381	-5.373	0.003
S	-141.827	-6.363	0.003
C	-142.422	-1.225	0.003
H	-141.831	-0.993	0.896
H	-141.832	-0.993	-0.89
H	-143.327	-0.615	0.003
O	-145.139	-2.263	0.003
H	-150.923	-3.116	0.003
H	-138.587	-6.677	0.003
C	-139.002	-5.679	0.003
S	-139.181	-3.059	0.003
C	-138.202	-4.551	0.003
C	-155.746	-5.252	0.003
C	-155.008	-6.494	0.003
C	-154.951	-4.108	0.003
N	-155.534	-7.722	0.003
N	-153.03	-7.73	0.003
S	-154.286	-8.789	0.003
H	-153.044	-3.158	0.003
H	-155.431	-3.133	0.003
C	-153.544	-4.12	0.003
C	-153.55	-6.502	0.003
C	-152.78	-5.285	0.003
C	-170.32	-5.906	0.003
S	-169.337	-7.39	0.003
C	-169.517	-4.771	0.003
C	-168.143	-5.065	0.003
C	-167.871	-6.445	0.003
S	-166.697	-4.069	0.003
C	-165.715	-5.527	0.003
C	-166.492	-6.693	0.003
C	-164.344	-5.902	0.003
C	-164.347	-7.412	0.003
N	-165.679	-7.821	0.003
C	-166.1	-9.208	0.003
O	-163.383	-8.167	0.003
H	-166.691	-9.44	0.896
H	-166.692	-9.439	-0.89
H	-165.196	-9.819	0.003
C	-163.171	-5.176	0.003
C	-163.167	-3.667	0.003
N	-161.835	-3.259	0.003
C	-161.022	-4.388	0.003
C	-161.799	-5.554	0.003
C	-159.645	-4.641	0.003
C	-159.372	-6.02	0.003
S	-160.818	-7.01	0.003
C	-161.413	-1.872	0.003
H	-160.822	-1.64	0.896
H	-160.823	-1.64	-0.89
H	-162.318	-1.262	0.004
O	-164.13	-2.91	0.003
H	-169.914	-3.764	0.004
H	-157.578	-7.324	0.003
C	-157.993	-6.326	0.003
S	-158.172	-3.707	0.003
C	-157.193	-5.198	0.003
C	-174.737	-5.9	0.004
C	-173.999	-7.141	0.004
C	-173.942	-4.755	0.003
N	-174.525	-8.369	0.004
N	-172.021	-8.378	0.003
S	-173.277	-9.436	0.004
H	-172.035	-3.805	0.003
H	-174.422	-3.78	0.003
C	-172.535	-4.767	0.003
C	-172.541	-7.149	0.003
C	-171.771	-5.932	0.003
H	14.809	0.607	-0.0
H	-175.818	-5.861	0.004
