452
TTIGBTF_10
C	0.373	0.167	-0.0
S	1.261	-1.385	-0.0
C	1.249	1.245	-0.0
C	2.601	0.854	-0.0
C	2.784	-0.541	-0.0
S	4.107	1.753	-0.0
C	4.994	0.236	-0.0
C	4.143	-0.878	-0.0
C	6.338	-0.228	-0.0
C	6.237	-1.736	-0.0
N	4.882	-2.058	-0.0
C	4.37	-3.414	-0.0
O	7.15	-2.551	-0.0
H	3.766	-3.607	0.893
H	3.765	-3.606	-0.893
H	5.233	-4.083	-0.0
C	7.555	0.42	0.0
C	7.657	1.925	0.0
N	9.014	2.245	0.0
C	9.751	1.065	0.0
C	8.899	-0.047	0.0
C	11.109	0.721	0.0
C	11.29	-0.672	0.0
S	9.782	-1.565	0.0
C	9.526	3.601	0.0
H	10.13	3.794	0.893
H	10.13	3.794	-0.893
H	8.662	4.269	0.0
O	6.747	2.743	0.0
H	0.901	2.268	-0.0
H	12.995	-2.091	0.0
C	12.645	-1.068	0.0
S	12.638	1.558	0.0
C	13.517	0.006	0.0
C	-4.064	0.241	-0.0
C	-3.291	1.458	-0.0
C	-3.301	-0.92	-0.0
N	-3.812	2.683	-0.0
N	-1.31	2.678	-0.0
S	-2.56	3.745	-0.0
F	-1.324	-2.134	-0.0
H	-3.763	-1.9	-0.0
C	-1.897	-0.908	-0.0
C	-1.831	1.449	-0.0
C	-1.075	0.214	-0.0
C	-18.657	0.372	-0.0
S	-17.769	-1.179	-0.0
C	-17.781	1.451	-0.0
C	-16.429	1.059	-0.0
C	-16.246	-0.336	-0.0
S	-14.923	1.958	-0.0
C	-14.036	0.441	-0.0
C	-14.887	-0.673	-0.0
C	-12.693	-0.023	-0.0
C	-12.794	-1.531	-0.0
N	-14.149	-1.852	-0.0
C	-14.66	-3.209	-0.0
O	-11.881	-2.345	-0.0
H	-15.265	-3.401	0.893
H	-15.265	-3.401	-0.893
H	-13.797	-3.877	-0.0
C	-11.476	0.626	-0.0
C	-11.373	2.131	-0.0
N	-10.017	2.451	-0.0
C	-9.28	1.27	-0.0
C	-10.131	0.158	-0.0
C	-7.922	0.927	-0.0
C	-7.74	-0.467	-0.0
S	-9.249	-1.36	-0.0
C	-9.505	3.807	-0.0
H	-8.9	3.999	0.893
H	-8.9	4.0	-0.893
H	-10.368	4.475	0.0
O	-12.284	2.949	-0.0
H	-18.129	2.474	-0.0
H	-6.036	-1.886	-0.0
C	-6.385	-0.863	-0.0
S	-6.392	1.764	-0.0
C	-5.513	0.212	-0.0
C	-23.095	0.447	-0.0
C	-22.321	1.663	-0.0
C	-22.331	-0.714	-0.0
N	-22.842	2.889	-0.0
N	-20.341	2.883	-0.0
S	-21.59	3.95	-0.0
F	-20.354	-1.928	-0.0
H	-22.794	-1.694	-0.0
C	-20.928	-0.703	-0.0
C	-20.861	1.654	-0.0
C	-20.106	0.42	-0.0
C	-37.688	0.578	-0.0
S	-36.8	-0.974	-0.0
C	-36.812	1.656	-0.0
C	-35.46	1.265	-0.0
C	-35.277	-0.13	-0.0
S	-33.954	2.164	-0.0
C	-33.067	0.647	-0.0
C	-33.918	-0.467	-0.0
C	-31.723	0.183	-0.0
C	-31.824	-1.325	-0.0
N	-33.179	-1.647	-0.0
C	-33.691	-3.003	-0.0
O	-30.911	-2.14	-0.0
H	-34.295	-3.196	0.893
H	-34.296	-3.195	-0.893
H	-32.828	-3.672	-0.001
C	-30.506	0.831	-0.0
C	-30.404	2.336	-0.0
N	-29.047	2.656	-0.0
C	-28.31	1.476	-0.0
C	-29.162	0.364	-0.0
C	-26.952	1.132	-0.0
C	-26.771	-0.261	-0.0
S	-28.279	-1.154	-0.0
C	-28.535	4.012	-0.0
H	-27.931	4.205	0.893
H	-27.931	4.205	-0.894
H	-29.399	4.68	0.0
O	-31.314	3.154	-0.0
H	-37.16	2.679	-0.0
H	-25.066	-1.68	-0.0
C	-25.416	-0.657	-0.0
S	-25.423	1.969	-0.0
C	-24.544	0.417	-0.0
C	-42.125	0.652	-0.0
C	-41.352	1.869	-0.0
C	-41.362	-0.509	-0.0
N	-41.873	3.094	-0.0
N	-39.371	3.089	-0.0
S	-40.621	4.156	-0.0
F	-39.385	-1.723	-0.0
H	-41.824	-1.489	-0.0
C	-39.958	-0.497	-0.0
C	-39.892	1.86	-0.0
C	-39.136	0.625	-0.0
C	-56.718	0.783	-0.001
S	-55.83	-0.768	-0.001
C	-55.842	1.862	-0.001
C	-54.49	1.47	-0.001
C	-54.307	0.075	-0.001
S	-52.984	2.369	-0.001
C	-52.097	0.852	-0.001
C	-52.948	-0.262	-0.001
C	-50.754	0.388	-0.001
C	-50.855	-1.12	-0.001
N	-52.21	-1.441	-0.001
C	-52.721	-2.798	-0.001
O	-49.942	-1.934	-0.001
H	-53.326	-2.99	0.893
H	-53.326	-2.99	-0.894
H	-51.858	-3.466	-0.001
C	-49.537	1.037	-0.0
C	-49.434	2.542	-0.0
N	-48.078	2.862	-0.0
C	-47.341	1.681	-0.0
C	-48.192	0.569	-0.0
C	-45.983	1.338	-0.0
C	-45.801	-0.056	-0.0
S	-47.31	-0.949	-0.0
C	-47.566	4.218	-0.0
H	-46.961	4.41	0.893
H	-46.961	4.411	-0.894
H	-48.429	4.886	-0.0
O	-50.345	3.36	-0.0
H	-56.19	2.885	-0.001
H	-44.096	-1.475	-0.0
C	-44.446	-0.452	-0.0
S	-44.453	2.175	-0.0
C	-43.574	0.623	-0.0
C	-61.155	0.858	-0.001
C	-60.382	2.074	-0.001
C	-60.392	-0.303	-0.001
N	-60.903	3.3	-0.001
N	-58.402	3.294	-0.001
S	-59.651	4.361	-0.001
F	-58.415	-1.517	-0.001
H	-60.855	-1.283	-0.001
C	-58.989	-0.292	-0.001
C	-58.922	2.065	-0.001
C	-58.167	0.831	-0.001
C	-75.749	0.989	-0.001
S	-74.861	-0.563	-0.001
C	-74.872	2.067	-0.001
C	-73.521	1.676	-0.001
C	-73.338	0.281	-0.001
S	-72.015	2.575	-0.001
C	-71.128	1.058	-0.001
C	-71.979	-0.056	-0.001
C	-69.784	0.594	-0.001
C	-69.885	-0.914	-0.001
N	-71.24	-1.236	-0.001
C	-71.752	-2.592	-0.001
O	-68.972	-1.729	-0.001
H	-72.356	-2.785	0.892
H	-72.357	-2.784	-0.894
H	-70.889	-3.261	-0.001
C	-68.567	1.242	-0.001
C	-68.465	2.747	-0.001
N	-67.108	3.067	-0.001
C	-66.371	1.887	-0.001
C	-67.223	0.775	-0.001
C	-65.013	1.543	-0.001
C	-64.832	0.149	-0.001
S	-66.34	-0.743	-0.001
C	-66.596	4.423	-0.001
H	-65.992	4.616	0.893
H	-65.992	4.616	-0.894
H	-67.46	5.091	-0.0
O	-69.375	3.565	-0.001
H	-75.221	3.09	-0.001
H	-63.127	-1.269	-0.001
C	-63.477	-0.246	-0.001
S	-63.484	2.38	-0.001
C	-62.605	0.828	-0.001
C	-80.186	1.063	-0.001
C	-79.413	2.279	-0.001
C	-79.423	-0.098	-0.001
N	-79.934	3.505	-0.001
N	-77.432	3.5	-0.001
S	-78.682	4.567	-0.001
F	-77.446	-1.312	-0.001
H	-79.885	-1.078	-0.001
C	-78.019	-0.086	-0.001
C	-77.953	2.271	-0.001
C	-77.197	1.036	-0.001
C	-94.779	1.194	-0.001
S	-93.891	-0.357	-0.001
C	-93.903	2.273	-0.001
C	-92.551	1.881	-0.001
C	-92.368	0.486	-0.001
S	-91.045	2.78	-0.001
C	-90.158	1.263	-0.001
C	-91.009	0.149	-0.001
C	-88.815	0.799	-0.001
C	-88.916	-0.709	-0.001
N	-90.271	-1.03	-0.001
C	-90.782	-2.387	-0.001
O	-88.003	-1.523	-0.001
H	-91.387	-2.579	0.892
H	-91.387	-2.579	-0.894
H	-89.919	-3.055	-0.001
C	-87.598	1.448	-0.001
C	-87.495	2.953	-0.001
N	-86.139	3.273	-0.001
C	-85.402	2.092	-0.001
C	-86.253	0.98	-0.001
C	-84.044	1.749	-0.001
C	-83.862	0.355	-0.001
S	-85.371	-0.538	-0.001
C	-85.627	4.629	-0.001
H	-85.022	4.821	0.892
H	-85.022	4.822	-0.894
H	-86.49	5.297	-0.0
O	-88.406	3.771	-0.001
H	-94.251	3.296	-0.001
H	-82.157	-1.064	-0.001
C	-82.507	-0.041	-0.001
S	-82.514	2.586	-0.001
C	-81.635	1.034	-0.001
C	-99.216	1.269	-0.001
C	-98.443	2.485	-0.001
C	-98.453	0.108	-0.001
N	-98.964	3.711	-0.001
N	-96.463	3.705	-0.001
S	-97.712	4.772	-0.001
F	-96.476	-1.106	-0.001
H	-98.916	-0.872	-0.001
C	-97.05	0.119	-0.001
C	-96.983	2.476	-0.001
C	-96.228	1.242	-0.001
C	-113.81	1.4	-0.001
S	-112.922	-0.152	-0.001
C	-112.933	2.478	-0.001
C	-111.582	2.087	-0.001
C	-111.399	0.692	-0.001
S	-110.076	2.986	-0.001
C	-109.189	1.469	-0.001
C	-110.04	0.355	-0.001
C	-107.845	1.005	-0.001
C	-107.946	-0.503	-0.001
N	-109.301	-0.825	-0.001
C	-109.813	-2.181	-0.001
O	-107.033	-1.318	-0.001
H	-110.417	-2.374	0.892
H	-110.418	-2.373	-0.894
H	-108.95	-2.85	-0.001
C	-106.628	1.653	-0.001
C	-106.526	3.158	-0.001
N	-105.169	3.478	-0.001
C	-104.432	2.298	-0.001
C	-105.284	1.186	-0.001
C	-103.074	1.954	-0.001
C	-102.893	0.56	-0.001
S	-104.401	-0.332	-0.001
C	-104.657	4.834	-0.001
H	-104.053	5.027	0.892
H	-104.053	5.027	-0.894
H	-105.521	5.502	-0.001
O	-107.436	3.976	-0.001
H	-113.282	3.501	-0.001
H	-101.188	-0.858	-0.001
C	-101.538	0.165	-0.001
S	-101.545	2.791	-0.001
C	-100.666	1.239	-0.001
C	-118.247	1.474	-0.001
C	-117.474	2.69	-0.001
C	-117.484	0.313	-0.001
N	-117.995	3.916	-0.001
N	-115.493	3.911	-0.001
S	-116.743	4.978	-0.001
F	-115.507	-0.901	-0.001
H	-117.946	-0.667	-0.001
C	-116.08	0.325	-0.001
C	-116.014	2.682	-0.001
C	-115.258	1.447	-0.001
C	-132.84	1.605	-0.001
S	-131.952	0.054	-0.001
C	-131.964	2.684	-0.001
C	-130.612	2.292	-0.001
C	-130.429	0.897	-0.001
S	-129.106	3.191	-0.001
C	-128.219	1.674	-0.001
C	-129.07	0.56	-0.001
C	-126.876	1.21	-0.001
C	-126.977	-0.298	-0.001
N	-128.332	-0.619	-0.001
C	-128.843	-1.976	-0.001
O	-126.064	-1.112	-0.001
H	-129.448	-2.168	0.892
H	-129.448	-2.168	-0.894
H	-127.98	-2.644	-0.002
C	-125.659	1.858	-0.001
C	-125.556	3.364	-0.001
N	-124.199	3.684	-0.001
C	-123.463	2.503	-0.001
C	-124.314	1.391	-0.001
C	-122.105	2.16	-0.001
C	-121.923	0.766	-0.001
S	-123.432	-0.127	-0.001
C	-123.688	5.04	-0.001
H	-123.083	5.232	0.892
H	-123.083	5.232	-0.894
H	-124.551	5.708	-0.001
O	-126.467	4.181	-0.001
H	-132.312	3.706	-0.001
H	-120.218	-0.653	-0.001
C	-120.568	0.37	-0.001
S	-120.575	2.997	-0.001
C	-119.696	1.445	-0.001
C	-137.277	1.68	-0.001
C	-136.504	2.896	-0.001
C	-136.514	0.519	-0.001
N	-137.025	4.122	-0.001
N	-134.524	4.116	-0.001
S	-135.773	5.183	-0.001
F	-134.537	-0.695	-0.001
H	-136.977	-0.461	-0.001
C	-135.111	0.53	-0.001
C	-135.044	2.887	-0.001
C	-134.289	1.653	-0.001
C	-151.871	1.811	-0.001
S	-150.983	0.259	-0.001
C	-150.994	2.889	-0.001
C	-149.643	2.498	-0.001
C	-149.46	1.103	-0.001
S	-148.137	3.397	-0.001
C	-147.25	1.88	-0.001
C	-148.101	0.766	-0.001
C	-145.906	1.416	-0.001
C	-146.007	-0.092	-0.001
N	-147.362	-0.414	-0.001
C	-147.874	-1.77	-0.001
O	-145.094	-0.907	-0.001
H	-148.478	-1.963	0.892
H	-148.479	-1.962	-0.894
H	-147.011	-2.439	-0.002
C	-144.689	2.064	-0.001
C	-144.587	3.569	-0.001
N	-143.23	3.889	-0.001
C	-142.493	2.709	-0.001
C	-143.345	1.597	-0.001
C	-141.135	2.365	-0.001
C	-140.954	0.971	-0.001
S	-142.462	0.079	-0.001
C	-142.718	5.245	-0.001
H	-142.114	5.438	0.892
H	-142.114	5.438	-0.895
H	-143.582	5.913	-0.001
O	-145.497	4.387	-0.001
H	-151.343	3.912	-0.001
H	-139.249	-0.447	-0.001
C	-139.599	0.576	-0.001
S	-139.606	3.202	-0.001
C	-138.727	1.65	-0.001
C	-156.308	1.885	-0.001
C	-155.535	3.101	-0.001
C	-155.545	0.724	-0.001
N	-156.056	4.327	-0.001
N	-153.554	4.322	-0.001
S	-154.804	5.389	-0.001
F	-153.568	-0.49	-0.001
H	-156.007	-0.256	-0.001
C	-154.141	0.736	-0.001
C	-154.075	3.093	-0.001
C	-153.319	1.858	-0.001
C	-170.901	2.016	-0.002
S	-170.013	0.465	-0.002
C	-170.025	3.095	-0.002
C	-168.673	2.703	-0.002
C	-168.49	1.308	-0.002
S	-167.167	3.602	-0.002
C	-166.28	2.085	-0.002
C	-167.131	0.971	-0.002
C	-164.937	1.621	-0.002
C	-165.038	0.113	-0.002
N	-166.393	-0.208	-0.002
C	-166.904	-1.565	-0.002
O	-164.125	-0.701	-0.002
H	-167.509	-1.757	0.892
H	-167.509	-1.757	-0.895
H	-166.041	-2.233	-0.002
C	-163.72	2.269	-0.001
C	-163.617	3.775	-0.001
N	-162.26	4.095	-0.001
C	-161.524	2.914	-0.001
C	-162.375	1.802	-0.001
C	-160.166	2.571	-0.001
C	-159.984	1.177	-0.001
S	-161.493	0.284	-0.002
C	-161.749	5.451	-0.001
H	-161.144	5.643	0.892
H	-161.144	5.643	-0.895
H	-162.612	6.119	-0.001
O	-164.528	4.592	-0.001
H	-170.373	4.117	-0.002
H	-158.279	-0.242	-0.002
C	-158.629	0.781	-0.001
S	-158.636	3.407	-0.001
C	-157.757	1.856	-0.001
C	-175.338	2.091	-0.002
C	-174.565	3.307	-0.002
C	-174.575	0.93	-0.002
N	-175.086	4.533	-0.002
N	-172.585	4.527	-0.002
S	-173.834	5.594	-0.002
F	-172.598	-0.284	-0.002
H	-175.038	-0.05	-0.002
C	-173.172	0.941	-0.002
C	-173.105	3.298	-0.002
C	-172.35	2.064	-0.002
H	14.596	-0.084	0.0
H	-176.421	2.082	-0.002
