412
TTIGTFF_10
C	-0.627	1.768	-0.0
S	-1.825	3.083	-0.0
C	-1.232	0.521	-0.0
C	-2.64	0.599	-0.001
C	-3.126	1.92	-0.0
S	-3.912	-0.607	-0.001
C	-5.11	0.678	-0.001
C	-4.526	1.951	-0.0
C	-6.524	0.835	-0.0
C	-6.758	2.325	-0.0
N	-5.507	2.939	-0.0
C	-5.308	4.374	0.0
O	-7.828	2.92	0.0
H	-4.761	4.697	-0.893
H	-4.762	4.696	0.894
H	-6.298	4.835	0.0
C	-7.567	-0.067	-0.0
C	-7.333	-1.558	-0.0
N	-8.584	-2.171	-0.0
C	-9.564	-1.184	-0.0
C	-8.981	0.089	-0.0
C	-10.966	-1.153	-0.0
C	-11.452	0.166	-0.0
S	-10.182	1.373	-0.0
C	-8.783	-3.607	0.0
H	-9.33	-3.929	-0.893
H	-9.33	-3.929	0.893
H	-7.793	-4.068	-0.0
O	-6.263	-2.152	-0.0
H	-0.672	-0.407	-0.001
H	-13.424	1.17	0.0
C	-12.862	0.243	0.0
S	-12.267	-2.317	0.0
C	-13.463	-1.003	0.0
C	3.336	1.921	-0.0
C	2.827	3.201	0.0
S	1.992	0.777	-0.0
F	0.779	4.455	0.0
F	3.589	4.305	0.0
C	1.419	3.276	0.0
C	0.778	2.057	-0.0
C	17.172	-2.63	0.001
S	15.842	-3.812	0.0
C	16.703	-1.326	0.001
C	15.295	-1.255	0.001
C	14.672	-2.516	0.001
S	14.158	0.079	0.001
C	12.83	-1.072	0.001
C	13.276	-2.399	0.001
C	11.408	-1.078	0.001
C	11.017	-2.535	0.001
N	12.196	-3.277	0.0
C	12.242	-4.726	0.0
O	9.89	-3.013	0.0
H	12.751	-5.105	0.893
H	12.751	-5.104	-0.893
H	11.209	-5.079	0.0
C	10.466	-0.071	0.001
C	10.857	1.387	0.001
N	9.678	2.13	0.0
C	8.599	1.251	0.0
C	9.043	-0.076	0.001
C	7.202	1.369	0.0
C	6.578	0.109	0.0
S	7.714	-1.225	0.001
C	9.632	3.579	0.0
H	9.123	3.957	0.893
H	9.123	3.956	-0.893
H	10.665	3.932	0.0
O	11.984	1.865	0.001
H	17.359	-0.463	0.001
H	4.512	-0.68	0.0
C	5.168	0.183	0.0
S	6.031	2.664	-0.0
C	4.702	1.485	-0.0
C	21.097	-3.202	0.001
C	20.456	-4.422	0.0
S	19.883	-1.923	0.001
F	18.286	-5.451	0.0
F	21.096	-5.6	0.0
C	19.048	-4.347	0.0
C	18.539	-3.066	0.001
C	35.338	-0.143	0.0
S	34.141	1.173	0.001
C	34.733	-1.39	0.0
C	33.326	-1.312	0.0
C	32.84	0.009	0.0
S	32.054	-2.518	-0.0
C	30.855	-1.233	-0.0
C	31.439	0.04	0.0
C	29.441	-1.076	0.0
C	29.207	0.414	0.0
N	30.459	1.028	0.0
C	30.657	2.463	0.001
O	28.137	1.009	0.001
H	31.204	2.786	-0.892
H	31.204	2.785	0.894
H	29.668	2.924	0.001
C	28.398	-1.978	0.0
C	28.633	-3.469	0.0
N	27.381	-4.082	0.0
C	26.401	-3.094	0.0
C	26.984	-1.822	0.0
C	25.0	-3.064	0.001
C	24.513	-1.745	0.0
S	25.784	-0.538	0.0
C	27.183	-5.518	0.001
H	26.636	-5.84	-0.893
H	26.636	-5.84	0.894
H	28.172	-5.979	0.001
O	29.703	-4.063	0.0
H	35.294	-2.318	-0.0
H	22.542	-0.741	0.001
C	23.104	-1.668	0.001
S	23.699	-4.228	0.001
C	22.502	-2.914	0.001
C	39.301	0.01	0.0
C	38.793	1.29	0.001
S	37.958	-1.134	0.0
F	36.744	2.544	0.001
F	39.554	2.395	0.001
C	37.385	1.365	0.001
C	36.744	0.146	0.0
C	53.138	-4.541	0.001
S	51.808	-5.723	0.001
C	52.669	-3.237	0.001
C	51.261	-3.166	0.002
C	50.637	-4.427	0.001
S	50.124	-1.832	0.002
C	48.796	-2.983	0.001
C	49.242	-4.31	0.001
C	47.373	-2.989	0.001
C	46.983	-4.446	0.001
N	48.162	-5.188	0.001
C	48.207	-6.637	0.001
O	45.856	-4.924	0.001
H	48.717	-7.016	0.894
H	48.717	-7.015	-0.893
H	47.175	-6.99	0.001
C	46.432	-1.982	0.001
C	46.823	-0.524	0.001
N	45.644	0.219	0.001
C	44.564	-0.66	0.001
C	45.009	-1.987	0.001
C	43.167	-0.542	0.001
C	42.544	-1.802	0.001
S	43.68	-3.136	0.001
C	45.598	1.668	0.001
H	45.088	2.046	0.894
H	45.089	2.045	-0.893
H	46.631	2.021	0.001
O	47.95	-0.046	0.001
H	53.325	-2.374	0.002
H	40.477	-2.591	0.001
C	41.134	-1.728	0.001
S	41.997	0.753	0.0
C	40.668	-0.426	0.0
C	57.063	-5.113	0.001
C	56.422	-6.333	0.001
S	55.848	-3.834	0.002
F	54.252	-7.362	0.001
F	57.062	-7.511	0.001
C	55.013	-6.258	0.001
C	54.505	-4.977	0.001
C	71.304	-2.054	0.001
S	70.106	-0.738	0.001
C	70.699	-3.301	0.001
C	69.292	-3.223	0.001
C	68.805	-1.902	0.001
S	68.019	-4.428	0.0
C	66.821	-3.143	0.001
C	67.405	-1.871	0.001
C	65.407	-2.987	0.001
C	65.173	-1.496	0.001
N	66.424	-0.883	0.001
C	66.623	0.553	0.001
O	64.103	-0.902	0.001
H	67.17	0.875	-0.892
H	67.17	0.874	0.895
H	65.633	1.013	0.001
C	64.364	-3.889	0.001
C	64.598	-5.38	0.001
N	63.347	-5.993	0.001
C	62.367	-5.005	0.001
C	62.95	-3.733	0.001
C	60.965	-4.975	0.001
C	60.479	-3.656	0.001
S	61.75	-2.449	0.001
C	63.148	-7.429	0.001
H	62.601	-7.751	-0.892
H	62.602	-7.751	0.895
H	64.138	-7.89	0.001
O	65.669	-5.974	0.001
H	71.26	-4.229	0.001
H	58.508	-2.652	0.001
C	59.069	-3.579	0.001
S	59.664	-6.138	0.001
C	58.468	-4.825	0.001
C	75.267	-1.901	0.001
C	74.759	-0.62	0.001
S	73.924	-3.045	0.001
F	72.71	0.633	0.002
F	75.52	0.484	0.002
C	73.35	-0.546	0.001
C	72.709	-1.765	0.001
C	89.104	-6.452	0.002
S	87.774	-7.633	0.002
C	88.634	-5.148	0.002
C	87.227	-5.077	0.002
C	86.603	-6.338	0.002
S	86.089	-3.743	0.002
C	84.762	-4.894	0.002
C	85.207	-6.221	0.002
C	83.339	-4.9	0.002
C	82.948	-6.357	0.002
N	84.128	-7.099	0.002
C	84.173	-8.548	0.001
O	81.821	-6.835	0.001
H	84.683	-8.926	0.894
H	84.683	-8.926	-0.892
H	83.14	-8.901	0.001
C	82.397	-3.893	0.002
C	82.788	-2.435	0.002
N	81.609	-1.692	0.001
C	80.53	-2.571	0.001
C	80.975	-3.898	0.002
C	79.133	-2.453	0.001
C	78.51	-3.713	0.001
S	79.645	-5.047	0.002
C	81.564	-0.243	0.001
H	81.054	0.135	0.894
H	81.054	0.135	-0.892
H	82.597	0.11	0.001
O	83.916	-1.957	0.002
H	89.29	-4.284	0.002
H	76.443	-4.502	0.001
C	77.1	-3.639	0.001
S	77.962	-1.158	0.001
C	76.634	-2.337	0.001
C	93.028	-7.024	0.002
C	92.387	-8.244	0.002
S	91.814	-5.745	0.002
F	90.217	-9.273	0.001
F	93.027	-9.422	0.001
C	90.979	-8.169	0.001
C	90.471	-6.888	0.002
C	107.269	-3.965	0.001
S	106.072	-2.649	0.002
C	106.665	-5.212	0.001
C	105.257	-5.133	0.001
C	104.771	-3.813	0.001
S	103.985	-6.339	0.001
C	102.787	-5.054	0.001
C	103.37	-3.782	0.001
C	101.373	-4.898	0.001
C	101.138	-3.407	0.001
N	102.39	-2.794	0.002
C	102.589	-1.358	0.002
O	100.068	-2.813	0.002
H	103.135	-1.036	-0.891
H	103.135	-1.037	0.895
H	101.599	-0.898	0.002
C	100.33	-5.8	0.001
C	100.564	-7.291	0.001
N	99.313	-7.904	0.002
C	98.333	-6.916	0.002
C	98.915	-5.644	0.001
C	96.931	-6.886	0.002
C	96.445	-5.567	0.002
S	97.715	-4.36	0.001
C	99.114	-9.34	0.002
H	98.567	-9.662	-0.891
H	98.567	-9.662	0.895
H	100.104	-9.801	0.002
O	101.634	-7.885	0.001
H	107.225	-6.14	0.001
H	94.473	-4.563	0.002
C	95.035	-5.49	0.002
S	95.63	-8.049	0.002
C	94.434	-6.736	0.002
C	111.232	-3.812	0.002
C	110.724	-2.531	0.002
S	109.889	-4.956	0.001
F	108.676	-1.278	0.002
F	111.486	-1.427	0.002
C	109.316	-2.457	0.002
C	108.675	-3.676	0.002
C	125.069	-8.363	0.002
S	123.739	-9.544	0.002
C	124.6	-7.059	0.003
C	123.192	-6.988	0.003
C	122.569	-8.249	0.002
S	122.055	-5.654	0.003
C	120.727	-6.805	0.003
C	121.173	-8.132	0.002
C	119.305	-6.81	0.002
C	118.914	-8.268	0.002
N	120.093	-9.01	0.002
C	120.139	-10.459	0.002
O	117.787	-8.746	0.002
H	120.648	-10.837	0.895
H	120.648	-10.837	-0.892
H	119.106	-10.812	0.002
C	118.363	-5.803	0.002
C	118.754	-4.346	0.002
N	117.575	-3.603	0.002
C	116.495	-4.482	0.002
C	116.94	-5.808	0.002
C	115.099	-4.364	0.002
C	114.475	-5.623	0.002
S	115.611	-6.958	0.002
C	117.529	-2.154	0.002
H	117.019	-1.776	0.895
H	117.02	-1.776	-0.892
H	118.562	-1.801	0.002
O	119.881	-3.868	0.002
H	125.256	-6.195	0.003
H	112.408	-6.413	0.002
C	113.065	-5.55	0.002
S	113.928	-3.069	0.002
C	112.599	-4.248	0.002
C	128.994	-8.935	0.002
C	128.353	-10.155	0.002
S	127.779	-7.656	0.003
F	126.183	-11.184	0.002
F	128.993	-11.333	0.002
C	126.944	-10.08	0.002
C	126.436	-8.799	0.002
C	143.235	-5.876	0.002
S	142.038	-4.56	0.002
C	142.63	-7.123	0.002
C	141.223	-7.044	0.002
C	140.736	-5.724	0.002
S	139.951	-8.25	0.001
C	138.752	-6.965	0.002
C	139.336	-5.693	0.002
C	137.338	-6.809	0.002
C	137.104	-5.318	0.002
N	138.356	-4.705	0.002
C	138.554	-3.269	0.002
O	136.034	-4.724	0.002
H	139.101	-2.947	-0.891
H	139.101	-2.947	0.896
H	137.564	-2.809	0.002
C	136.295	-7.711	0.002
C	136.53	-9.202	0.002
N	135.278	-9.815	0.002
C	134.298	-8.827	0.002
C	134.881	-7.555	0.002
C	132.897	-8.797	0.002
C	132.41	-7.478	0.002
S	133.681	-6.271	0.002
C	135.08	-11.251	0.002
H	134.533	-11.573	-0.891
H	134.533	-11.573	0.896
H	136.069	-11.711	0.002
O	137.6	-9.796	0.002
H	143.191	-8.051	0.002
H	130.439	-6.473	0.002
C	131.001	-7.401	0.002
S	131.596	-9.96	0.002
C	130.399	-8.646	0.002
C	147.198	-5.723	0.002
C	146.69	-4.442	0.002
S	145.855	-6.866	0.002
F	144.641	-3.189	0.003
F	147.451	-3.338	0.003
C	145.281	-4.368	0.002
C	144.64	-5.587	0.002
C	161.035	-10.274	0.003
S	159.705	-11.455	0.003
C	160.566	-8.97	0.003
C	159.158	-8.899	0.003
C	158.534	-10.16	0.003
S	158.021	-7.565	0.003
C	156.693	-8.716	0.003
C	157.139	-10.043	0.003
C	155.27	-8.721	0.003
C	154.879	-10.179	0.003
N	156.059	-10.921	0.003
C	156.104	-12.37	0.002
O	153.752	-10.657	0.002
H	156.614	-12.748	0.895
H	156.614	-12.748	-0.891
H	155.071	-12.723	0.002
C	154.329	-7.714	0.003
C	154.72	-6.257	0.003
N	153.54	-5.514	0.003
C	152.461	-6.392	0.003
C	152.906	-7.719	0.003
C	151.064	-6.274	0.002
C	150.441	-7.534	0.002
S	151.577	-8.869	0.003
C	153.495	-4.065	0.002
H	152.985	-3.687	0.896
H	152.985	-3.687	-0.891
H	154.528	-3.712	0.003
O	155.847	-5.779	0.003
H	161.222	-8.106	0.003
H	148.374	-8.324	0.002
C	149.031	-7.461	0.002
S	149.894	-4.979	0.002
C	148.565	-6.159	0.002
C	164.959	-10.846	0.003
C	164.319	-12.066	0.003
S	163.745	-9.567	0.003
F	162.149	-13.095	0.002
F	164.959	-13.244	0.002
C	162.91	-11.991	0.003
C	162.402	-10.71	0.003
H	-14.534	-1.158	0.0
H	166.031	-10.697	0.003
