782

C           -166.25511  -0.2813     0.00062     
C           -166.66961  1.04532     -0.00188    
S           -167.64616  -1.35025    0.00256     
H           -168.54553  2.16402     -0.00405    
H           -165.96555  1.8715      -0.00342    
C           -168.06612  1.19731     -0.00221    
C           -168.7705   0.0         -0.0        
C           -161.45166  0.12112     -0.0001     
C           -162.58414  -0.69791    0.00148     
N           -161.90789  1.43784     -0.00263    
C           -163.34101  1.49949     -0.00273    
C           -162.99217  -2.08574    0.00412     
O           -162.37541  -3.1481     0.00614     
O           -163.95795  2.56159     -0.00477    
C           -165.19374  -3.2569     0.00633     
C           -161.13958  2.67065     -0.00497    
C           -160.33088  3.96828     -0.00742    
H           -160.63667  2.35549     -0.91922    
H           -161.6425   2.98581     0.90928     
H           -165.69677  -2.94174    0.92051     
C           -166.00228  -4.55463    0.00881     
H           -164.69071  -3.57206    -0.90786    
N           -164.42557  -2.02398    0.00397     
C           -163.74932  0.11135     -7e-05      
C           -164.88144  -0.70738    0.00146     
C           -157.56362  -0.58633    0.0012      
C           -158.26846  -1.78446    0.00354     
S           -158.68663  0.7648      -0.0014     
H           -160.36883  -2.45719    0.00488     
H           -157.78784  -2.75082    0.0054      
C           -159.66408  -1.63152    0.00327     
C           -160.07887  -0.30425    0.0007      
C           -153.20878  0.0         -0.0        
C           -154.1299   1.06576     -0.00223    
C           -153.82269  -1.26638    0.00266     
F           -153.70619  2.34289     -0.00489    
F           -155.6194   -2.73274    0.00574     
F           -153.0635   -2.3782     0.005       
F           -156.26294  1.98909     -0.00417    
C           -155.50315  0.87688     -0.00184    
C           -155.19618  -1.45653    0.00305     
C           -156.11766  -0.38992    0.0008      
C           -159.52218  5.26591     -0.00988    
C           -158.71347  6.56353     -0.01235    
C           -157.90478  7.86116     -0.01481    
C           -157.09607  9.15879     -0.01728    
C           -156.28737  10.45642    -0.01973    
C           -155.47867  11.75404    -0.02219    
C           -154.66997  13.05167    -0.02466    
C           -153.86127  14.3493     -0.02712    
C           -153.05257  15.64693    -0.02958    
C           -152.24387  16.94455    -0.03204    
C           -159.62542  3.52619     -1.28989    
C           -158.91996  3.0841      -2.57236    
C           -158.21449  2.642       -3.85482    
C           -157.50903  2.19992     -5.13729    
C           -156.80356  1.75783     -6.41975    
C           -156.0981   1.31574     -7.70222    
C           -155.39264  0.87365     -8.98469    
C           -154.68717  0.43157     -10.26715   
C           -166.81082  -5.85236    0.0113      
C           -167.61937  -7.15008    0.01378     
C           -168.42791  -8.44781    0.01626     
C           -169.23645  -9.74553    0.01874     
C           -170.045    -11.04326   0.02123     
C           -170.85354  -12.34099   0.02371     
C           -171.66208  -13.63871   0.02619     
C           -172.47063  -14.93644   0.02868     
C           -173.27917  -16.23416   0.03116     
C           -174.08771  -17.53189   0.03364     
C           -166.70791  -4.11254    1.29119     
C           -167.41354  -3.67045    2.57356     
C           -168.11916  -3.22835    3.85594     
C           -168.82479  -2.78626    5.13831     
C           -169.53042  -2.34417    6.42069     
C           -170.23605  -1.90208    7.70306     
C           -170.94168  -1.45998    8.98543     
C           -171.6473   -1.01789    10.26781    
C           -149.23191  -0.2813     0.00172     
C           -149.64642  1.04531     -0.00596    
S           -150.62296  -1.35023    0.00783     
H           -151.52233  2.16399     -0.01249    
H           -148.94235  1.87147     -0.01072    
C           -151.04293  1.19729     -0.00688    
C           -151.7473   0.0         -0.0        
C           -144.42846  0.12112     -0.00057    
C           -145.56095  -0.6979     0.0042      
N           -144.88469  1.43782     -0.00823    
C           -146.31781  1.49947     -0.00858    
C           -145.96897  -2.08571    0.01225     
O           -145.35221  -3.14806    0.01841     
O           -146.93475  2.56156     -0.01476    
C           -148.17054  -3.25685    0.01903     
C           -144.11638  2.67061     -0.01538    
C           -143.30768  3.96822     -0.0229     
H           -143.61347  2.35189     -0.92839    
H           -144.6193   2.98933     0.89763     
H           -148.67357  -2.93813    0.93198     
C           -148.97908  -4.55456    0.02657     
H           -147.66751  -3.57558    -0.89392    
N           -147.40237  -2.02395    0.01186     
C           -146.72612  0.11135     -0.0005     
C           -147.85825  -0.70737    0.00422     
C           -140.54043  -0.58632    0.00348     
C           -141.24526  -1.78443    0.0105      
S           -141.66344  0.76479     -0.00438    
H           -143.34563  -2.45715    0.01446     
H           -140.76464  -2.75078    0.01612     
C           -142.64088  -1.63149    0.00963     
C           -143.05567  -0.30424    0.00189     
C           -136.18558  0.0         -0.0        
C           -137.10671  1.06574     -0.00638    
C           -136.7995   -1.26636    0.00759     
F           -136.68299  2.34285     -0.01402    
F           -138.5962   -2.7327     0.0164      
F           -136.0403   -2.37816    0.01427     
F           -139.23974  1.98905     -0.01192    
C           -138.47995  0.87687     -0.00526    
C           -138.17299  -1.4565     0.00873     
C           -139.09446  -0.38992    0.00232     
C           -142.49898  5.26583     -0.03041    
C           -141.69028  6.56343     -0.03794    
C           -140.88158  7.86105     -0.04546    
C           -140.07288  9.15865     -0.05299    
C           -139.26418  10.45626    -0.06051    
C           -138.45548  11.75387    -0.06802    
C           -137.64677  13.05147    -0.07555    
C           -136.83808  14.34909    -0.08307    
C           -136.02937  15.64669    -0.09059    
C           -135.22067  16.9443     -0.09811    
C           -142.60222  3.52113     -1.30363    
C           -141.89676  3.07405     -2.58436    
C           -141.19129  2.62695     -3.86509    
C           -140.48583  2.17987     -5.14583    
C           -139.78036  1.73279     -6.42656    
C           -139.07491  1.2857      -7.70729    
C           -138.36944  0.83861     -8.98803    
C           -137.66397  0.39153     -10.26875   
C           -149.78763  -5.85227    0.03411     
C           -150.59617  -7.14997    0.04166     
C           -151.40471  -8.44768    0.0492      
C           -152.21326  -9.74539    0.05674     
C           -153.0218   -11.04309   0.06429     
C           -153.83034  -12.3408    0.07183     
C           -154.63888  -13.63851   0.07937     
C           -155.44743  -14.93621   0.08692     
C           -156.25597  -16.23392   0.09446     
C           -157.06451  -17.53163   0.102       
C           -149.68471  -4.10747    1.30721     
C           -150.39034  -3.66038    2.58785     
C           -151.09597  -3.21329    3.86849     
C           -151.8016   -2.7662     5.14914     
C           -152.50722  -2.31912    6.42978     
C           -153.21285  -1.87203    7.71042     
C           -153.91848  -1.42494    8.99106     
C           -154.62411  -0.97785    10.2717     
C           -132.20871  -0.2813     0.00172     
C           -132.62322  1.04531     -0.00596    
S           -133.59977  -1.35023    0.00783     
H           -134.49913  2.16399     -0.01249    
H           -131.91915  1.87147     -0.01072    
C           -134.01973  1.19729     -0.00688    
C           -134.72411  0.0         -0.0        
C           -127.40526  0.12112     -0.00057    
C           -128.53775  -0.6979     0.0042      
N           -127.8615   1.43782     -0.00823    
C           -129.29461  1.49947     -0.00858    
C           -128.94578  -2.08571    0.01225     
O           -128.32901  -3.14806    0.01841     
O           -129.91156  2.56156     -0.01476    
C           -131.14734  -3.25685    0.01903     
C           -127.09319  2.67061     -0.01538    
C           -126.28449  3.96822     -0.0229     
H           -126.59027  2.35189     -0.92839    
H           -127.5961   2.98933     0.89763     
H           -131.65037  -2.93813    0.93198     
C           -131.95589  -4.55456    0.02657     
H           -130.64431  -3.57558    -0.89392    
N           -130.37917  -2.02395    0.01186     
C           -129.70293  0.11135     -0.0005     
C           -130.83505  -0.70737    0.00422     
C           -123.51723  -0.58632    0.00348     
C           -124.22207  -1.78443    0.0105      
S           -124.64024  0.76479     -0.00438    
H           -126.32243  -2.45715    0.01446     
H           -123.74144  -2.75078    0.01612     
C           -125.61769  -1.63149    0.00963     
C           -126.03247  -0.30424    0.00189     
C           -119.16238  0.0         -0.0        
C           -120.08351  1.06574     -0.00638    
C           -119.7763   -1.26636    0.00759     
F           -119.65979  2.34285     -0.01402    
F           -121.57301  -2.7327     0.0164      
F           -119.0171   -2.37816    0.01427     
F           -122.21654  1.98905     -0.01192    
C           -121.45676  0.87687     -0.00526    
C           -121.14979  -1.4565     0.00873     
C           -122.07127  -0.38992    0.00232     
C           -125.47579  5.26583     -0.03041    
C           -124.66708  6.56343     -0.03794    
C           -123.85839  7.86105     -0.04546    
C           -123.04968  9.15865     -0.05299    
C           -122.24098  10.45626    -0.06051    
C           -121.43228  11.75387    -0.06802    
C           -120.62357  13.05147    -0.07555    
C           -119.81488  14.34909    -0.08307    
C           -119.00618  15.64669    -0.09059    
C           -118.19747  16.9443     -0.09811    
C           -125.57903  3.52113     -1.30363    
C           -124.87356  3.07405     -2.58436    
C           -124.1681   2.62695     -3.86509    
C           -123.46263  2.17987     -5.14583    
C           -122.75717  1.73279     -6.42656    
C           -122.05171  1.2857      -7.70729    
C           -121.34624  0.83861     -8.98803    
C           -120.64077  0.39153     -10.26875   
C           -132.76443  -5.85227    0.03411     
C           -133.57297  -7.14997    0.04166     
C           -134.38152  -8.44768    0.0492      
C           -135.19006  -9.74539    0.05674     
C           -135.9986   -11.04309   0.06429     
C           -136.80714  -12.3408    0.07183     
C           -137.61569  -13.63851   0.07937     
C           -138.42423  -14.93621   0.08692     
C           -139.23277  -16.23392   0.09446     
C           -140.04132  -17.53163   0.102       
C           -132.66151  -4.10747    1.30721     
C           -133.36714  -3.66038    2.58785     
C           -134.07277  -3.21329    3.86849     
C           -134.7784   -2.7662     5.14914     
C           -135.48403  -2.31912    6.42978     
C           -136.18965  -1.87203    7.71042     
C           -136.89528  -1.42494    8.99106     
C           -137.60091  -0.97785    10.2717     
C           -115.18551  -0.2813     0.00172     
C           -115.60002  1.04531     -0.00596    
S           -116.57657  -1.35023    0.00783     
H           -117.47594  2.16399     -0.01249    
H           -114.89596  1.87147     -0.01072    
C           -116.99653  1.19729     -0.00688    
C           -117.70091  0.0         -0.0        
C           -110.38207  0.12112     -0.00057    
C           -111.51455  -0.6979     0.0042      
N           -110.8383   1.43782     -0.00823    
C           -112.27142  1.49947     -0.00858    
C           -111.92258  -2.08571    0.01225     
O           -111.30582  -3.14806    0.01841     
O           -112.88836  2.56156     -0.01476    
C           -114.12415  -3.25685    0.01903     
C           -110.06999  2.67061     -0.01538    
C           -109.26129  3.96822     -0.0229     
H           -109.56708  2.35189     -0.92839    
H           -110.5729   2.98933     0.89763     
H           -114.62718  -2.93813    0.93198     
C           -114.93269  -4.55456    0.02657     
H           -113.62111  -3.57558    -0.89392    
N           -113.35598  -2.02395    0.01186     
C           -112.67973  0.11135     -0.0005     
C           -113.81185  -0.70737    0.00422     
C           -106.49403  -0.58632    0.00348     
C           -107.19887  -1.78443    0.0105      
S           -107.61704  0.76479     -0.00438    
H           -109.29924  -2.45715    0.01446     
H           -106.71825  -2.75078    0.01612     
C           -108.59449  -1.63149    0.00963     
C           -109.00928  -0.30424    0.00189     
C           -102.13918  0.0         -0.0        
C           -103.06031  1.06574     -0.00638    
C           -102.7531   -1.26636    0.00759     
F           -102.63659  2.34285     -0.01402    
F           -104.54981  -2.7327     0.0164      
F           -101.9939   -2.37816    0.01427     
F           -105.19335  1.98905     -0.01192    
C           -104.43356  0.87687     -0.00526    
C           -104.12659  -1.4565     0.00873     
C           -105.04807  -0.38992    0.00232     
C           -108.45259  5.26583     -0.03041    
C           -107.64388  6.56343     -0.03794    
C           -106.83519  7.86105     -0.04546    
C           -106.02648  9.15865     -0.05299    
C           -105.21778  10.45626    -0.06051    
C           -104.40908  11.75387    -0.06802    
C           -103.60038  13.05147    -0.07555    
C           -102.79168  14.34909    -0.08307    
C           -101.98298  15.64669    -0.09059    
C           -101.17427  16.9443     -0.09811    
C           -108.55583  3.52113     -1.30363    
C           -107.85037  3.07405     -2.58436    
C           -107.1449   2.62695     -3.86509    
C           -106.43943  2.17987     -5.14583    
C           -105.73397  1.73279     -6.42656    
C           -105.02851  1.2857      -7.70729    
C           -104.32305  0.83861     -8.98803    
C           -103.61757  0.39153     -10.26875   
C           -115.74123  -5.85227    0.03411     
C           -116.54978  -7.14997    0.04166     
C           -117.35832  -8.44768    0.0492      
C           -118.16686  -9.74539    0.05674     
C           -118.9754   -11.04309   0.06429     
C           -119.78395  -12.3408    0.07183     
C           -120.59249  -13.63851   0.07937     
C           -121.40103  -14.93621   0.08692     
C           -122.20958  -16.23392   0.09446     
C           -123.01812  -17.53163   0.102       
C           -115.63832  -4.10747    1.30721     
C           -116.34394  -3.66038    2.58785     
C           -117.04957  -3.21329    3.86849     
C           -117.7552   -2.7662     5.14914     
C           -118.46083  -2.31912    6.42978     
C           -119.16646  -1.87203    7.71042     
C           -119.87208  -1.42494    8.99106     
C           -120.57771  -0.97785    10.2717     
C           -98.16232   -0.2813     0.00172     
C           -98.57683   1.04531     -0.00596    
S           -99.55337   -1.35023    0.00783     
H           -100.45274  2.16399     -0.01249    
H           -97.87276   1.87147     -0.01072    
C           -99.97334   1.19729     -0.00688    
C           -100.67771  0.0         -0.0        
C           -93.35887   0.12112     -0.00057    
C           -94.49136   -0.6979     0.0042      
N           -93.8151    1.43782     -0.00823    
C           -95.24822   1.49947     -0.00858    
C           -94.89938   -2.08571    0.01225     
O           -94.28262   -3.14806    0.01841     
O           -95.86516   2.56156     -0.01476    
C           -97.10095   -3.25685    0.01903     
C           -93.04679   2.67061     -0.01538    
C           -92.23809   3.96822     -0.0229     
H           -92.54388   2.35189     -0.92839    
H           -93.54971   2.98933     0.89763     
H           -97.60398   -2.93813    0.93198     
C           -97.90949   -4.55456    0.02657     
H           -96.59792   -3.57558    -0.89392    
N           -96.33278   -2.02395    0.01186     
C           -95.65653   0.11135     -0.0005     
C           -96.78865   -0.70737    0.00422     
C           -89.47084   -0.58632    0.00348     
C           -90.17567   -1.78443    0.0105      
S           -90.59384   0.76479     -0.00438    
H           -92.27604   -2.45715    0.01446     
H           -89.69505   -2.75078    0.01612     
C           -91.57129   -1.63149    0.00963     
C           -91.98608   -0.30424    0.00189     
C           -85.11599   0.0         -0.0        
C           -86.03712   1.06574     -0.00638    
C           -85.72991   -1.26636    0.00759     
F           -85.6134    2.34285     -0.01402    
F           -87.52661   -2.7327     0.0164      
F           -84.97071   -2.37816    0.01427     
F           -88.17015   1.98905     -0.01192    
C           -87.41036   0.87687     -0.00526    
C           -87.10339   -1.4565     0.00873     
C           -88.02487   -0.38992    0.00232     
C           -91.42939   5.26583     -0.03041    
C           -90.62069   6.56343     -0.03794    
C           -89.81199   7.86105     -0.04546    
C           -89.00329   9.15865     -0.05299    
C           -88.19458   10.45626    -0.06051    
C           -87.38588   11.75387    -0.06802    
C           -86.57718   13.05147    -0.07555    
C           -85.76848   14.34909    -0.08307    
C           -84.95978   15.64669    -0.09059    
C           -84.15108   16.9443     -0.09811    
C           -91.53263   3.52113     -1.30363    
C           -90.82717   3.07405     -2.58436    
C           -90.1217    2.62695     -3.86509    
C           -89.41624   2.17987     -5.14583    
C           -88.71077   1.73279     -6.42656    
C           -88.00531   1.2857      -7.70729    
C           -87.29985   0.83861     -8.98803    
C           -86.59438   0.39153     -10.26875   
C           -98.71803   -5.85227    0.03411     
C           -99.52658   -7.14997    0.04166     
C           -100.33512  -8.44768    0.0492      
C           -101.14366  -9.74539    0.05674     
C           -101.95221  -11.04309   0.06429     
C           -102.76075  -12.3408    0.07183     
C           -103.56929  -13.63851   0.07937     
C           -104.37784  -14.93621   0.08692     
C           -105.18638  -16.23392   0.09446     
C           -105.99492  -17.53163   0.102       
C           -98.61512   -4.10747    1.30721     
C           -99.32075   -3.66038    2.58785     
C           -100.02638  -3.21329    3.86849     
C           -100.732    -2.7662     5.14914     
C           -101.43763  -2.31912    6.42978     
C           -102.14326  -1.87203    7.71042     
C           -102.84889  -1.42494    8.99106     
C           -103.55452  -0.97785    10.2717     
C           -81.13912   -0.2813     0.00172     
C           -81.55363   1.04531     -0.00596    
S           -82.53017   -1.35023    0.00783     
H           -83.42954   2.16399     -0.01249    
H           -80.84956   1.87147     -0.01072    
C           -82.95014   1.19729     -0.00688    
C           -83.65451   0.0         -0.0        
C           -76.33567   0.12112     -0.00057    
C           -77.46816   -0.6979     0.0042      
N           -76.7919    1.43782     -0.00823    
C           -78.22502   1.49947     -0.00858    
C           -77.87618   -2.08571    0.01225     
O           -77.25942   -3.14806    0.01841     
O           -78.84196   2.56156     -0.01476    
C           -80.07775   -3.25685    0.01903     
C           -76.0236    2.67061     -0.01538    
C           -75.21489   3.96822     -0.0229     
H           -75.52068   2.35189     -0.92839    
H           -76.52651   2.98933     0.89763     
H           -80.58078   -2.93813    0.93198     
C           -80.88629   -4.55456    0.02657     
H           -79.57472   -3.57558    -0.89392    
N           -79.30958   -2.02395    0.01186     
C           -78.63334   0.11135     -0.0005     
C           -79.76546   -0.70737    0.00422     
C           -72.44764   -0.58632    0.00348     
C           -73.15247   -1.78443    0.0105      
S           -73.57065   0.76479     -0.00438    
H           -75.25284   -2.45715    0.01446     
H           -72.67185   -2.75078    0.01612     
C           -74.54809   -1.63149    0.00963     
C           -74.96288   -0.30424    0.00189     
C           -68.09279   0.0         -0.0        
C           -69.01392   1.06574     -0.00638    
C           -68.70671   -1.26636    0.00759     
F           -68.5902    2.34285     -0.01402    
F           -70.50341   -2.7327     0.0164      
F           -67.94751   -2.37816    0.01427     
F           -71.14695   1.98905     -0.01192    
C           -70.38717   0.87687     -0.00526    
C           -70.0802    -1.4565     0.00873     
C           -71.00167   -0.38992    0.00232     
C           -74.40619   5.26583     -0.03041    
C           -73.59749   6.56343     -0.03794    
C           -72.78879   7.86105     -0.04546    
C           -71.98009   9.15865     -0.05299    
C           -71.17139   10.45626    -0.06051    
C           -70.36269   11.75387    -0.06802    
C           -69.55398   13.05147    -0.07555    
C           -68.74529   14.34909    -0.08307    
C           -67.93659   15.64669    -0.09059    
C           -67.12788   16.9443     -0.09811    
C           -74.50944   3.52113     -1.30363    
C           -73.80397   3.07405     -2.58436    
C           -73.0985    2.62695     -3.86509    
C           -72.39304   2.17987     -5.14583    
C           -71.68758   1.73279     -6.42656    
C           -70.98212   1.2857      -7.70729    
C           -70.27665   0.83861     -8.98803    
C           -69.57118   0.39153     -10.26875   
C           -81.69484   -5.85227    0.03411     
C           -82.50338   -7.14997    0.04166     
C           -83.31192   -8.44768    0.0492      
C           -84.12047   -9.74539    0.05674     
C           -84.92901   -11.04309   0.06429     
C           -85.73755   -12.3408    0.07183     
C           -86.5461    -13.63851   0.07937     
C           -87.35464   -14.93621   0.08692     
C           -88.16318   -16.23392   0.09446     
C           -88.97172   -17.53163   0.102       
C           -81.59192   -4.10747    1.30721     
C           -82.29755   -3.66038    2.58785     
C           -83.00318   -3.21329    3.86849     
C           -83.70881   -2.7662     5.14914     
C           -84.41443   -2.31912    6.42978     
C           -85.12006   -1.87203    7.71042     
C           -85.82569   -1.42494    8.99106     
C           -86.53132   -0.97785    10.2717     
C           -64.11592   -0.2813     0.00172     
C           -64.53043   1.04531     -0.00596    
S           -65.50698   -1.35023    0.00783     
H           -66.40634   2.16399     -0.01249    
H           -63.82636   1.87147     -0.01072    
C           -65.92694   1.19729     -0.00688    
C           -66.63132   0.0         -0.0        
C           -59.31247   0.12112     -0.00057    
C           -60.44496   -0.6979     0.0042      
N           -59.76871   1.43782     -0.00823    
C           -61.20183   1.49947     -0.00858    
C           -60.85299   -2.08571    0.01225     
O           -60.23622   -3.14806    0.01841     
O           -61.81877   2.56156     -0.01476    
C           -63.05455   -3.25685    0.01903     
C           -59.0004    2.67061     -0.01538    
C           -58.1917    3.96822     -0.0229     
H           -58.49748   2.35189     -0.92839    
H           -59.50331   2.98933     0.89763     
H           -63.55759   -2.93813    0.93198     
C           -63.8631    -4.55456    0.02657     
H           -62.55152   -3.57558    -0.89392    
N           -62.28639   -2.02395    0.01186     
C           -61.61014   0.11135     -0.0005     
C           -62.74226   -0.70737    0.00422     
C           -55.42444   -0.58632    0.00348     
C           -56.12928   -1.78443    0.0105      
S           -56.54745   0.76479     -0.00438    
H           -58.22964   -2.45715    0.01446     
H           -55.64866   -2.75078    0.01612     
C           -57.5249    -1.63149    0.00963     
C           -57.93969   -0.30424    0.00189     
C           -51.06959   0.0         -0.0        
C           -51.99072   1.06574     -0.00638    
C           -51.68351   -1.26636    0.00759     
F           -51.567     2.34285     -0.01402    
F           -53.48022   -2.7327     0.0164      
F           -50.92431   -2.37816    0.01427     
F           -54.12375   1.98905     -0.01192    
C           -53.36397   0.87687     -0.00526    
C           -53.057     -1.4565     0.00873     
C           -53.97848   -0.38992    0.00232     
C           -57.383     5.26583     -0.03041    
C           -56.57429   6.56343     -0.03794    
C           -55.7656    7.86105     -0.04546    
C           -54.95689   9.15865     -0.05299    
C           -54.14819   10.45626    -0.06051    
C           -53.33949   11.75387    -0.06802    
C           -52.53078   13.05147    -0.07555    
C           -51.72209   14.34909    -0.08307    
C           -50.91339   15.64669    -0.09059    
C           -50.10468   16.9443     -0.09811    
C           -57.48624   3.52113     -1.30363    
C           -56.78077   3.07405     -2.58436    
C           -56.07531   2.62695     -3.86509    
C           -55.36984   2.17987     -5.14583    
C           -54.66438   1.73279     -6.42656    
C           -53.95892   1.2857      -7.70729    
C           -53.25345   0.83861     -8.98803    
C           -52.54798   0.39153     -10.26875   
C           -64.67164   -5.85227    0.03411     
C           -65.48018   -7.14997    0.04166     
C           -66.28873   -8.44768    0.0492      
C           -67.09727   -9.74539    0.05674     
C           -67.90581   -11.04309   0.06429     
C           -68.71436   -12.3408    0.07183     
C           -69.5229    -13.63851   0.07937     
C           -70.33144   -14.93621   0.08692     
C           -71.13998   -16.23392   0.09446     
C           -71.94853   -17.53163   0.102       
C           -64.56873   -4.10747    1.30721     
C           -65.27435   -3.66038    2.58785     
C           -65.97998   -3.21329    3.86849     
C           -66.68561   -2.7662     5.14914     
C           -67.39124   -2.31912    6.42978     
C           -68.09687   -1.87203    7.71042     
C           -68.80249   -1.42494    8.99106     
C           -69.50812   -0.97785    10.2717     
C           -47.09272   -0.2813     0.00172     
C           -47.50723   1.04531     -0.00596    
S           -48.48378   -1.35023    0.00783     
H           -49.38315   2.16399     -0.01249    
H           -46.80317   1.87147     -0.01072    
C           -48.90374   1.19729     -0.00688    
C           -49.60812   0.0         -0.0        
C           -42.28928   0.12112     -0.00057    
C           -43.42176   -0.6979     0.0042      
N           -42.74551   1.43782     -0.00823    
C           -44.17863   1.49947     -0.00858    
C           -43.82979   -2.08571    0.01225     
O           -43.21303   -3.14806    0.01841     
O           -44.79557   2.56156     -0.01476    
C           -46.03136   -3.25685    0.01903     
C           -41.9772    2.67061     -0.01538    
C           -41.1685    3.96822     -0.0229     
H           -41.47429   2.35189     -0.92839    
H           -42.48012   2.98933     0.89763     
H           -46.53439   -2.93813    0.93198     
C           -46.8399    -4.55456    0.02657     
H           -45.52833   -3.57558    -0.89392    
N           -45.26319   -2.02395    0.01186     
C           -44.58694   0.11135     -0.0005     
C           -45.71906   -0.70737    0.00422     
C           -38.40124   -0.58632    0.00348     
C           -39.10608   -1.78443    0.0105      
S           -39.52425   0.76479     -0.00438    
H           -41.20645   -2.45715    0.01446     
H           -38.62546   -2.75078    0.01612     
C           -40.5017    -1.63149    0.00963     
C           -40.91649   -0.30424    0.00189     
C           -34.04639   0.0         -0.0        
C           -34.96752   1.06574     -0.00638    
C           -34.66031   -1.26636    0.00759     
F           -34.5438    2.34285     -0.01402    
F           -36.45702   -2.7327     0.0164      
F           -33.90111   -2.37816    0.01427     
F           -37.10056   1.98905     -0.01192    
C           -36.34077   0.87687     -0.00526    
C           -36.0338    -1.4565     0.00873     
C           -36.95528   -0.38992    0.00232     
C           -40.3598    5.26583     -0.03041    
C           -39.55109   6.56343     -0.03794    
C           -38.7424    7.86105     -0.04546    
C           -37.93369   9.15865     -0.05299    
C           -37.12499   10.45626    -0.06051    
C           -36.31629   11.75387    -0.06802    
C           -35.50759   13.05147    -0.07555    
C           -34.69889   14.34909    -0.08307    
C           -33.89019   15.64669    -0.09059    
C           -33.08149   16.9443     -0.09811    
C           -40.46304   3.52113     -1.30363    
C           -39.75758   3.07405     -2.58436    
C           -39.05211   2.62695     -3.86509    
C           -38.34665   2.17987     -5.14583    
C           -37.64118   1.73279     -6.42656    
C           -36.93572   1.2857      -7.70729    
C           -36.23026   0.83861     -8.98803    
C           -35.52479   0.39153     -10.26875   
C           -47.64844   -5.85227    0.03411     
C           -48.45699   -7.14997    0.04166     
C           -49.26553   -8.44768    0.0492      
C           -50.07407   -9.74539    0.05674     
C           -50.88262   -11.04309   0.06429     
C           -51.69116   -12.3408    0.07183     
C           -52.4997    -13.63851   0.07937     
C           -53.30824   -14.93621   0.08692     
C           -54.11679   -16.23392   0.09446     
C           -54.92533   -17.53163   0.102       
C           -47.54553   -4.10747    1.30721     
C           -48.25116   -3.66038    2.58785     
C           -48.95678   -3.21329    3.86849     
C           -49.66241   -2.7662     5.14914     
C           -50.36804   -2.31912    6.42978     
C           -51.07367   -1.87203    7.71042     
C           -51.7793    -1.42494    8.99106     
C           -52.48492   -0.97785    10.2717     
C           -30.06953   -0.2813     0.00172     
C           -30.48404   1.04531     -0.00596    
S           -31.46058   -1.35023    0.00783     
H           -32.35995   2.16399     -0.01249    
H           -29.77997   1.87147     -0.01072    
C           -31.88055   1.19729     -0.00688    
C           -32.58492   0.0         -0.0        
C           -25.26608   0.12112     -0.00057    
C           -26.39857   -0.6979     0.0042      
N           -25.72231   1.43782     -0.00823    
C           -27.15543   1.49947     -0.00858    
C           -26.80659   -2.08571    0.01225     
O           -26.18983   -3.14806    0.01841     
O           -27.77237   2.56156     -0.01476    
C           -29.00816   -3.25685    0.01903     
C           -24.954     2.67061     -0.01538    
C           -24.1453    3.96822     -0.0229     
H           -24.45109   2.35189     -0.92839    
H           -25.45692   2.98933     0.89763     
H           -29.51119   -2.93813    0.93198     
C           -29.8167    -4.55456    0.02657     
H           -28.50513   -3.57558    -0.89392    
N           -28.23999   -2.02395    0.01186     
C           -27.56374   0.11135     -0.0005     
C           -28.69587   -0.70737    0.00422     
C           -21.37805   -0.58632    0.00348     
C           -22.08288   -1.78443    0.0105      
S           -22.50105   0.76479     -0.00438    
H           -24.18325   -2.45715    0.01446     
H           -21.60226   -2.75078    0.01612     
C           -23.4785    -1.63149    0.00963     
C           -23.89329   -0.30424    0.00189     
C           -17.0232    0.0         -0.0        
C           -17.94433   1.06574     -0.00638    
C           -17.63712   -1.26636    0.00759     
F           -17.52061   2.34285     -0.01402    
F           -19.43382   -2.7327     0.0164      
F           -16.87792   -2.37816    0.01427     
F           -20.07736   1.98905     -0.01192    
C           -19.31757   0.87687     -0.00526    
C           -19.0106    -1.4565     0.00873     
C           -19.93208   -0.38992    0.00232     
C           -23.3366    5.26583     -0.03041    
C           -22.5279    6.56343     -0.03794    
C           -21.7192    7.86105     -0.04546    
C           -20.9105    9.15865     -0.05299    
C           -20.1018    10.45626    -0.06051    
C           -19.29309   11.75387    -0.06802    
C           -18.48439   13.05147    -0.07555    
C           -17.6757    14.34909    -0.08307    
C           -16.86699   15.64669    -0.09059    
C           -16.05829   16.9443     -0.09811    
C           -23.43984   3.52113     -1.30363    
C           -22.73438   3.07405     -2.58436    
C           -22.02891   2.62695     -3.86509    
C           -21.32345   2.17987     -5.14583    
C           -20.61798   1.73279     -6.42656    
C           -19.91252   1.2857      -7.70729    
C           -19.20706   0.83861     -8.98803    
C           -18.50159   0.39153     -10.26875   
C           -30.62525   -5.85227    0.03411     
C           -31.43379   -7.14997    0.04166     
C           -32.24233   -8.44768    0.0492      
C           -33.05087   -9.74539    0.05674     
C           -33.85942   -11.04309   0.06429     
C           -34.66796   -12.3408    0.07183     
C           -35.4765    -13.63851   0.07937     
C           -36.28505   -14.93621   0.08692     
C           -37.09359   -16.23392   0.09446     
C           -37.90213   -17.53163   0.102       
C           -30.52233   -4.10747    1.30721     
C           -31.22796   -3.66038    2.58785     
C           -31.93359   -3.21329    3.86849     
C           -32.63921   -2.7662     5.14914     
C           -33.34484   -2.31912    6.42978     
C           -34.05047   -1.87203    7.71042     
C           -34.7561    -1.42494    8.99106     
C           -35.46173   -0.97785    10.2717     
C           -13.04633   -0.2813     0.00172     
C           -13.46084   1.04531     -0.00596    
S           -14.43739   -1.35023    0.00783     
H           -15.33675   2.16399     -0.01249    
H           -12.75677   1.87147     -0.01072    
C           -14.85735   1.19729     -0.00688    
C           -15.56173   0.0         -0.0        
C           -8.24288    0.12112     -0.00057    
C           -9.37537    -0.6979     0.0042      
N           -8.69912    1.43782     -0.00823    
C           -10.13223   1.49947     -0.00858    
C           -9.7834     -2.08571    0.01225     
O           -9.16663    -3.14806    0.01841     
O           -10.74918   2.56156     -0.01476    
C           -11.98496   -3.25685    0.01903     
C           -7.93081    2.67061     -0.01538    
C           -7.12211    3.96822     -0.0229     
H           -7.42789    2.35189     -0.92839    
H           -8.43372    2.98933     0.89763     
H           -12.48799   -2.93813    0.93198     
C           -12.79351   -4.55456    0.02657     
H           -11.48193   -3.57558    -0.89392    
N           -11.21679   -2.02395    0.01186     
C           -10.54055   0.11135     -0.0005     
C           -11.67267   -0.70737    0.00422     
C           -4.35485    -0.58632    0.00348     
C           -5.05969    -1.78443    0.0105      
S           -5.47786    0.76479     -0.00438    
H           -7.16005    -2.45715    0.01446     
H           -4.57906    -2.75078    0.01612     
C           -6.45531    -1.63149    0.00963     
C           -6.87009    -0.30424    0.00189     
C           0.0         0.0         0.0         
C           -0.92113    1.06574     -0.00638    
C           -0.61392    -1.26636    0.00759     
F           -0.49741    2.34285     -0.01402    
F           -2.41063    -2.7327     0.0164      
F           0.14528     -2.37816    0.01427     
F           -3.05416    1.98905     -0.01192    
C           -2.29438    0.87687     -0.00526    
C           -1.98741    -1.4565     0.00873     
C           -2.90889    -0.38992    0.00232     
C           -6.3134     5.26583     -0.03041    
C           -5.5047     6.56343     -0.03794    
C           -4.69601    7.86105     -0.04546    
C           -3.8873     9.15865     -0.05299    
C           -3.0786     10.45626    -0.06051    
C           -2.2699     11.75387    -0.06802    
C           -1.46119    13.05147    -0.07555    
C           -0.6525     14.34909    -0.08307    
C           0.1562      15.64669    -0.09059    
C           0.96491     16.9443     -0.09811    
C           -6.41665    3.52113     -1.30363    
C           -5.71118    3.07405     -2.58436    
C           -5.00572    2.62695     -3.86509    
C           -4.30025    2.17987     -5.14583    
C           -3.59479    1.73279     -6.42656    
C           -2.88933    1.2857      -7.70729    
C           -2.18386    0.83861     -8.98803    
C           -1.47839    0.39153     -10.26875   
C           -13.60205   -5.85227    0.03411     
C           -14.41059   -7.14997    0.04166     
C           -15.21913   -8.44768    0.0492      
C           -16.02768   -9.74539    0.05674     
C           -16.83622   -11.04309   0.06429     
C           -17.64476   -12.3408    0.07183     
C           -18.45331   -13.63851   0.07937     
C           -19.26185   -14.93621   0.08692     
C           -20.07039   -16.23392   0.09446     
C           -20.87894   -17.53163   0.102       
C           -13.49913   -4.10747    1.30721     
C           -14.20476   -3.66038    2.58785     
C           -14.91039   -3.21329    3.86849     
C           -15.61602   -2.7662     5.14914     
C           -16.32165   -2.31912    6.42978     
C           -17.02727   -1.87203    7.71042     
C           -17.7329    -1.42494    8.99106     
C           -18.43853   -0.97785    10.2717     
H           -169.8605   0.0         -0.0        
H           1.09        0.0         0.0         
