82

C           -10.63143   -0.2276     -0.00227    
C           -11.32319   -1.44241    0.02285     
S           -11.79301   1.09525     -0.09252    
H           -13.39844   -2.16608    0.03943     
H           -10.82891   -2.40202    0.01972     
C           -12.7237    -1.32126    0.0183      
C           -13.14443   0.0         0.0         
C           -3.98096    0.14703     -0.10548    
C           -4.89441    -0.8461     0.33307     
C           -4.5673     1.30186     -0.70975    
C           -6.29917    -0.60813    0.27032     
C           -6.84527    0.58415     -0.27315    
C           -7.22664    -1.54489    0.78756     
C           -5.9183     1.52269     -0.78838    
C           -6.36261    2.76914     -1.44507    
N           -7.74297    2.98249     -1.42533    
C           -8.69271    2.12618     -0.85423    
C           -6.77712    -2.78687    1.44505     
N           -5.39992    -3.00742    1.42305     
C           -4.44663    -2.15568    0.84496     
O           -7.54779    -3.60946    1.96236     
O           -3.26352    -2.54099    0.76983     
O           -5.57746    3.58381     -1.95495    
O           -9.872      2.52608     -0.80106    
C           -8.25809    4.25574     -1.98874    
C           -4.93212    -4.29049    2.00641     
H           -8.68129    3.71106     -2.83274    
H           -7.83489    4.80042     -1.14476    
C           -8.78862    5.5671      -2.56903    
H           -5.38971    -4.83335    1.17936     
H           -4.47454    -3.74763    2.83347     
C           -4.45049    -5.61152    2.60704     
H           -3.93569    2.04874     -1.16745    
H           -9.20665    -2.07173    1.17356     
C           -8.5775     -1.32492    0.71221     
C           -8.25071    0.81971     -0.33585    
C           -9.16463    -0.17095    0.10649     
C           0.0         0.0         0.0         
C           -0.4298     1.31837     0.0114      
S           -1.3439     -1.1057     0.07008     
H           -2.33339    2.38537     0.03385     
H           0.23932     2.16786     0.00824     
C           -1.83142    1.42994     0.00995     
C           -2.51427    0.21009     0.00896     
C           -9.31914    6.87846     -3.14931    
C           -9.84967    8.18981     -3.7296     
C           -10.38019   9.50116     -4.30988    
C           -10.91072   10.81253    -4.89017    
C           -11.44125   12.12388    -5.47045    
C           -11.97177   13.43523    -6.05073    
C           -12.5023    14.74659    -6.63102    
C           -13.03283   16.05795    -7.21131    
C           -13.56335   17.3693     -7.79159    
C           -14.09388   18.68066    -8.37187    
C           -9.38225    4.80305     -3.75294    
C           -9.9759     4.03899     -4.93686    
C           -10.56954   3.27493     -6.12077    
C           -11.16318   2.51087     -7.30468    
C           -11.75682   1.74683     -8.4886     
C           -12.35046   0.98277     -9.67251    
C           -12.94411   0.21871     -10.85642   
C           -13.53775   -0.54535    -12.04033   
C           -3.96885    -6.93255    3.20766     
C           -3.48722    -8.25358    3.80828     
C           -3.00558    -9.57461    4.40891     
C           -2.52395    -10.89564   5.00953     
C           -2.04231    -12.21667   5.61015     
C           -1.56067    -13.5377    6.21077     
C           -1.07904    -14.85873   6.8114      
C           -0.5974     -16.17976   7.41202     
C           -0.11577    -17.50079   8.01264     
C           0.36587     -18.82182   8.61327     
C           -3.80861    -4.85002    3.76719     
C           -3.16674    -4.08852    4.92734     
C           -2.52486    -3.32702    6.08749     
C           -1.88299    -2.56552    7.24765     
C           -1.24111    -1.80402    8.4078      
C           -0.59924    -1.04252    9.56795     
C           0.04264     -0.28102    10.7281     
C           0.68451     0.48048     11.88826    
H           -14.23443   0.0         0.0         
H           1.09        0.0         0.0         
