802

C           -141.93647  -0.2276     -0.00227    
C           -142.62823  -1.44241    0.02285     
S           -143.09805  1.09525     -0.09252    
H           -144.70348  -2.16608    0.03943     
H           -142.13395  -2.40202    0.01972     
C           -144.02874  -1.32126    0.0183      
C           -144.44947  0.0         0.0         
C           -135.286    0.14703     -0.10548    
C           -136.19945  -0.8461     0.33307     
C           -135.87234  1.30186     -0.70975    
C           -137.60421  -0.60813    0.27032     
C           -138.15031  0.58415     -0.27315    
C           -138.53168  -1.54489    0.78756     
C           -137.22334  1.52269     -0.78838    
C           -137.66765  2.76914     -1.44507    
N           -139.04801  2.98249     -1.42533    
C           -139.99775  2.12618     -0.85423    
C           -138.08216  -2.78687    1.44505     
N           -136.70496  -3.00742    1.42305     
C           -135.75167  -2.15568    0.84496     
O           -138.85283  -3.60946    1.96236     
O           -134.56856  -2.54099    0.76983     
O           -136.8825   3.58381     -1.95495    
O           -141.17704  2.52608     -0.80106    
C           -139.56313  4.25574     -1.98874    
C           -136.23716  -4.29049    2.00641     
H           -139.98633  3.71106     -2.83274    
H           -139.13993  4.80042     -1.14476    
C           -140.09366  5.5671      -2.56903    
H           -136.69475  -4.83335    1.17936     
H           -135.77958  -3.74763    2.83347     
C           -135.75553  -5.61152    2.60704     
H           -135.24073  2.04874     -1.16745    
H           -140.51169  -2.07173    1.17356     
C           -139.88254  -1.32492    0.71221     
C           -139.55575  0.81971     -0.33585    
C           -140.46967  -0.17095    0.10649     
C           -131.30504  0.0         0.0         
C           -131.73484  1.31837     0.0114      
S           -132.64894  -1.1057     0.07008     
H           -133.63843  2.38537     0.03385     
H           -131.06572  2.16786     0.00824     
C           -133.13646  1.42994     0.00995     
C           -133.81931  0.21009     0.00896     
C           -140.62418  6.87846     -3.14931    
C           -141.15471  8.18981     -3.7296     
C           -141.68523  9.50116     -4.30988    
C           -142.21576  10.81253    -4.89017    
C           -142.74629  12.12388    -5.47045    
C           -143.27681  13.43523    -6.05073    
C           -143.80734  14.74659    -6.63102    
C           -144.33787  16.05795    -7.21131    
C           -144.86839  17.3693     -7.79159    
C           -145.39892  18.68066    -8.37187    
C           -140.68729  4.80305     -3.75294    
C           -141.28094  4.03899     -4.93686    
C           -141.87458  3.27493     -6.12077    
C           -142.46822  2.51087     -7.30468    
C           -143.06186  1.74683     -8.4886     
C           -143.6555   0.98277     -9.67251    
C           -144.24915  0.21871     -10.85642   
C           -144.84279  -0.54535    -12.04033   
C           -135.27389  -6.93255    3.20766     
C           -134.79226  -8.25358    3.80828     
C           -134.31062  -9.57461    4.40891     
C           -133.82899  -10.89564   5.00953     
C           -133.34735  -12.21667   5.61015     
C           -132.86571  -13.5377    6.21077     
C           -132.38408  -14.85873   6.8114      
C           -131.90244  -16.17976   7.41202     
C           -131.42081  -17.50079   8.01264     
C           -130.93917  -18.82182   8.61327     
C           -135.11365  -4.85002    3.76719     
C           -134.47178  -4.08852    4.92734     
C           -133.8299   -3.32702    6.08749     
C           -133.18803  -2.56552    7.24765     
C           -132.54615  -1.80402    8.4078      
C           -131.90428  -1.04252    9.56795     
C           -131.2624   -0.28102    10.7281     
C           -130.62053  0.48048     11.88826    
C           -127.34702  -0.22761    -0.00134    
C           -128.03879  -1.4423     0.02874     
S           -128.5086   1.09487     -0.09699    
H           -130.11403  -2.1659     0.04828     
H           -127.5445   -2.40192    0.02953     
C           -129.43929  -1.32117    0.0237      
C           -129.86002  0.0         0.0         
C           -120.69655  0.1466      -0.10608    
C           -121.61     -0.84473    0.33653     
C           -121.28289  1.29895     -0.71506    
C           -123.01476  -0.60702    0.2728      
C           -123.56086  0.58303     -0.27554    
C           -123.94223  -1.54166    0.79386     
C           -122.63389  1.51946     -0.79459    
C           -123.0782   2.76322     -1.45637    
N           -124.45857  2.97665     -1.4375     
C           -125.4083   2.12267     -0.86291    
C           -123.49271  -2.78095    1.45642     
N           -122.11551  -3.00159    1.43532     
C           -121.16222  -2.15221    0.85376     
O           -124.26338  -3.60141    1.97709     
O           -119.97911  -2.53783    0.7802      
O           -122.29305  3.5758      -1.96957    
O           -126.58759  2.52279     -0.81137    
C           -124.97368  4.24758     -2.00611    
C           -121.64771  -4.28226    2.02392     
H           -125.39688  3.69946     -2.84788    
H           -124.55048  4.79571     -1.16435    
C           -125.50421  5.55656     -2.59175    
H           -122.1053   -4.82849    1.19909     
H           -121.19013  -3.73602    2.84875     
C           -121.16608  -5.60082    2.62993     
H           -120.65128  2.04395     -1.17581    
H           -125.92224  -2.06692    1.18201     
C           -125.29309  -1.322      0.71762     
C           -124.9663   0.81833     -0.3392     
C           -125.88022  -0.17052    0.10718     
C           -116.71559  0.0         0.0         
C           -117.14539  1.31841     0.00602     
S           -118.0595   -1.1054     0.07459     
H           -119.04898  2.38549     0.02411     
H           -116.47627  2.16788     -0.00061    
C           -118.54701  1.42997     0.0041      
C           -119.22986  0.21013     0.0081      
C           -126.03473  6.86554     -3.17738    
C           -126.56526  8.17451     -3.76302    
C           -127.09578  9.48348     -4.34865    
C           -127.62631  10.79246    -4.93429    
C           -128.15684  12.10143    -5.51993    
C           -128.68736  13.41041    -6.10556    
C           -129.21789  14.71938    -6.6912     
C           -129.74842  16.02836    -7.27683    
C           -130.27894  17.33733    -7.86247    
C           -130.80947  18.6463     -8.4481     
C           -126.09784  4.78768     -3.77253    
C           -126.69149  4.01879     -4.95332    
C           -127.28513  3.2499      -6.13409    
C           -127.87877  2.48102     -7.31487    
C           -128.47241  1.71214     -8.49566    
C           -129.06606  0.94325     -9.67645    
C           -129.6597   0.17436     -10.85722   
C           -130.25334  -0.59452    -12.038     
C           -120.68444  -6.91939    3.23595     
C           -120.20281  -8.23796    3.84196     
C           -119.72117  -9.55652    4.44798     
C           -119.23954  -10.87509   5.05399     
C           -118.7579   -12.19365   5.66        
C           -118.27626  -13.51222   6.26602     
C           -117.79463  -14.83078   6.87203     
C           -117.31299  -16.14935   7.47805     
C           -116.83136  -17.46792   8.08406     
C           -116.34972  -18.78648   8.69007     
C           -120.5242   -4.83459    3.78697     
C           -119.88233  -4.06836    4.944       
C           -119.24045  -3.30213    6.10103     
C           -118.59858  -2.53589    7.25807     
C           -117.9567   -1.76966    8.4151      
C           -117.31483  -1.00343    9.57213     
C           -116.67295  -0.2372     10.72916    
C           -116.03108  0.52904     11.8862     
C           -112.75757  -0.22761    -0.00134    
C           -113.44934  -1.4423     0.02874     
S           -113.91916  1.09487     -0.09699    
H           -115.52458  -2.1659     0.04828     
H           -112.95505  -2.40192    0.02953     
C           -114.84984  -1.32117    0.0237      
C           -115.27057  0.0         0.0         
C           -106.1071   0.1466      -0.10608    
C           -107.02055  -0.84473    0.33653     
C           -106.69344  1.29895     -0.71506    
C           -108.42531  -0.60702    0.2728      
C           -108.97141  0.58303     -0.27554    
C           -109.35278  -1.54166    0.79386     
C           -108.04444  1.51946     -0.79459    
C           -108.48875  2.76322     -1.45637    
N           -109.86912  2.97665     -1.4375     
C           -110.81885  2.12267     -0.86291    
C           -108.90326  -2.78095    1.45642     
N           -107.52606  -3.00159    1.43532     
C           -106.57277  -2.15221    0.85376     
O           -109.67393  -3.60141    1.97709     
O           -105.38966  -2.53783    0.7802      
O           -107.7036   3.5758      -1.96957    
O           -111.99814  2.52279     -0.81137    
C           -110.38423  4.24758     -2.00611    
C           -107.05827  -4.28226    2.02392     
H           -110.80743  3.69946     -2.84788    
H           -109.96103  4.79571     -1.16435    
C           -110.91476  5.55656     -2.59175    
H           -107.51585  -4.82849    1.19909     
H           -106.60068  -3.73602    2.84875     
C           -106.57663  -5.60082    2.62993     
H           -106.06183  2.04395     -1.17581    
H           -111.33279  -2.06692    1.18201     
C           -110.70365  -1.322      0.71762     
C           -110.37685  0.81833     -0.3392     
C           -111.29077  -0.17052    0.10718     
C           -102.12614  0.0         0.0         
C           -102.55594  1.31841     0.00602     
S           -103.47005  -1.1054     0.07459     
H           -104.45953  2.38549     0.02411     
H           -101.88682  2.16788     -0.00061    
C           -103.95757  1.42997     0.0041      
C           -104.64041  0.21013     0.0081      
C           -111.44528  6.86554     -3.17738    
C           -111.97581  8.17451     -3.76302    
C           -112.50634  9.48348     -4.34865    
C           -113.03686  10.79246    -4.93429    
C           -113.56739  12.10143    -5.51993    
C           -114.09791  13.41041    -6.10556    
C           -114.62844  14.71938    -6.6912     
C           -115.15897  16.02836    -7.27683    
C           -115.68949  17.33733    -7.86247    
C           -116.22002  18.6463     -8.4481     
C           -111.50839  4.78768     -3.77253    
C           -112.10204  4.01879     -4.95332    
C           -112.69568  3.2499      -6.13409    
C           -113.28932  2.48102     -7.31487    
C           -113.88296  1.71214     -8.49566    
C           -114.47661  0.94325     -9.67645    
C           -115.07025  0.17436     -10.85722   
C           -115.66389  -0.59452    -12.038     
C           -106.09499  -6.91939    3.23595     
C           -105.61336  -8.23796    3.84196     
C           -105.13172  -9.55652    4.44798     
C           -104.65009  -10.87509   5.05399     
C           -104.16845  -12.19365   5.66        
C           -103.68682  -13.51222   6.26602     
C           -103.20518  -14.83078   6.87203     
C           -102.72354  -16.14935   7.47805     
C           -102.24191  -17.46792   8.08406     
C           -101.76027  -18.78648   8.69007     
C           -105.93475  -4.83459    3.78697     
C           -105.29288  -4.06836    4.944       
C           -104.651    -3.30213    6.10103     
C           -104.00913  -2.53589    7.25807     
C           -103.36725  -1.76966    8.4151      
C           -102.72538  -1.00343    9.57213     
C           -102.0835   -0.2372     10.72916    
C           -101.44163  0.52904     11.8862     
C           -98.16812   -0.22761    -0.00134    
C           -98.85989   -1.4423     0.02874     
S           -99.32971   1.09487     -0.09699    
H           -100.93513  -2.1659     0.04828     
H           -98.3656    -2.40192    0.02953     
C           -100.2604   -1.32117    0.0237      
C           -100.68112  0.0         0.0         
C           -91.51765   0.1466      -0.10608    
C           -92.4311    -0.84473    0.33653     
C           -92.10399   1.29895     -0.71506    
C           -93.83586   -0.60702    0.2728      
C           -94.38196   0.58303     -0.27554    
C           -94.76333   -1.54166    0.79386     
C           -93.45499   1.51946     -0.79459    
C           -93.8993    2.76322     -1.45637    
N           -95.27967   2.97665     -1.4375     
C           -96.2294    2.12267     -0.86291    
C           -94.31381   -2.78095    1.45642     
N           -92.93661   -3.00159    1.43532     
C           -91.98332   -2.15221    0.85376     
O           -95.08448   -3.60141    1.97709     
O           -90.80021   -2.53783    0.7802      
O           -93.11416   3.5758      -1.96957    
O           -97.40869   2.52279     -0.81137    
C           -95.79478   4.24758     -2.00611    
C           -92.46882   -4.28226    2.02392     
H           -96.21798   3.69946     -2.84788    
H           -95.37158   4.79571     -1.16435    
C           -96.32531   5.55656     -2.59175    
H           -92.9264    -4.82849    1.19909     
H           -92.01123   -3.73602    2.84875     
C           -91.98718   -5.60082    2.62993     
H           -91.47238   2.04395     -1.17581    
H           -96.74334   -2.06692    1.18201     
C           -96.1142    -1.322      0.71762     
C           -95.7874    0.81833     -0.3392     
C           -96.70132   -0.17052    0.10718     
C           -87.53669   0.0         0.0         
C           -87.96649   1.31841     0.00602     
S           -88.8806    -1.1054     0.07459     
H           -89.87008   2.38549     0.02411     
H           -87.29737   2.16788     -0.00061    
C           -89.36812   1.42997     0.0041      
C           -90.05096   0.21013     0.0081      
C           -96.85584   6.86554     -3.17738    
C           -97.38636   8.17451     -3.76302    
C           -97.91689   9.48348     -4.34865    
C           -98.44741   10.79246    -4.93429    
C           -98.97794   12.10143    -5.51993    
C           -99.50846   13.41041    -6.10556    
C           -100.03899  14.71938    -6.6912     
C           -100.56952  16.02836    -7.27683    
C           -101.10004  17.33733    -7.86247    
C           -101.63057  18.6463     -8.4481     
C           -96.91894   4.78768     -3.77253    
C           -97.51259   4.01879     -4.95332    
C           -98.10623   3.2499      -6.13409    
C           -98.69988   2.48102     -7.31487    
C           -99.29351   1.71214     -8.49566    
C           -99.88716   0.94325     -9.67645    
C           -100.4808   0.17436     -10.85722   
C           -101.07444  -0.59452    -12.038     
C           -91.50555   -6.91939    3.23595     
C           -91.02391   -8.23796    3.84196     
C           -90.54227   -9.55652    4.44798     
C           -90.06064   -10.87509   5.05399     
C           -89.579     -12.19365   5.66        
C           -89.09737   -13.51222   6.26602     
C           -88.61573   -14.83078   6.87203     
C           -88.1341    -16.14935   7.47805     
C           -87.65246   -17.46792   8.08406     
C           -87.17082   -18.78648   8.69007     
C           -91.34531   -4.83459    3.78697     
C           -90.70343   -4.06836    4.944       
C           -90.06156   -3.30213    6.10103     
C           -89.41968   -2.53589    7.25807     
C           -88.7778    -1.76966    8.4151      
C           -88.13593   -1.00343    9.57213     
C           -87.49405   -0.2372     10.72916    
C           -86.85218   0.52904     11.8862     
C           -83.57867   -0.22761    -0.00134    
C           -84.27044   -1.4423     0.02874     
S           -84.74026   1.09487     -0.09699    
H           -86.34568   -2.1659     0.04828     
H           -83.77615   -2.40192    0.02953     
C           -85.67095   -1.32117    0.0237      
C           -86.09167   0.0         0.0         
C           -76.9282    0.1466      -0.10608    
C           -77.84165   -0.84473    0.33653     
C           -77.51454   1.29895     -0.71506    
C           -79.24641   -0.60702    0.2728      
C           -79.79251   0.58303     -0.27554    
C           -80.17388   -1.54166    0.79386     
C           -78.86554   1.51946     -0.79459    
C           -79.30985   2.76322     -1.45637    
N           -80.69022   2.97665     -1.4375     
C           -81.63995   2.12267     -0.86291    
C           -79.72437   -2.78095    1.45642     
N           -78.34716   -3.00159    1.43532     
C           -77.39388   -2.15221    0.85376     
O           -80.49503   -3.60141    1.97709     
O           -76.21076   -2.53783    0.7802      
O           -78.52471   3.5758      -1.96957    
O           -82.81924   2.52279     -0.81137    
C           -81.20533   4.24758     -2.00611    
C           -77.87937   -4.28226    2.02392     
H           -81.62853   3.69946     -2.84788    
H           -80.78213   4.79571     -1.16435    
C           -81.73586   5.55656     -2.59175    
H           -78.33695   -4.82849    1.19909     
H           -77.42179   -3.73602    2.84875     
C           -77.39773   -5.60082    2.62993     
H           -76.88293   2.04395     -1.17581    
H           -82.15389   -2.06692    1.18201     
C           -81.52475   -1.322      0.71762     
C           -81.19795   0.81833     -0.3392     
C           -82.11187   -0.17052    0.10718     
C           -72.94724   0.0         0.0         
C           -73.37704   1.31841     0.00602     
S           -74.29115   -1.1054     0.07459     
H           -75.28063   2.38549     0.02411     
H           -72.70792   2.16788     -0.00061    
C           -74.77867   1.42997     0.0041      
C           -75.46151   0.21013     0.0081      
C           -82.26639   6.86554     -3.17738    
C           -82.79691   8.17451     -3.76302    
C           -83.32744   9.48348     -4.34865    
C           -83.85797   10.79246    -4.93429    
C           -84.38849   12.10143    -5.51993    
C           -84.91902   13.41041    -6.10556    
C           -85.44954   14.71938    -6.6912     
C           -85.98007   16.02836    -7.27683    
C           -86.51059   17.33733    -7.86247    
C           -87.04112   18.6463     -8.4481     
C           -82.3295    4.78768     -3.77253    
C           -82.92314   4.01879     -4.95332    
C           -83.51678   3.2499      -6.13409    
C           -84.11043   2.48102     -7.31487    
C           -84.70406   1.71214     -8.49566    
C           -85.29771   0.94325     -9.67645    
C           -85.89135   0.17436     -10.85722   
C           -86.48499   -0.59452    -12.038     
C           -76.9161    -6.91939    3.23595     
C           -76.43446   -8.23796    3.84196     
C           -75.95283   -9.55652    4.44798     
C           -75.47119   -10.87509   5.05399     
C           -74.98955   -12.19365   5.66        
C           -74.50792   -13.51222   6.26602     
C           -74.02628   -14.83078   6.87203     
C           -73.54465   -16.14935   7.47805     
C           -73.06301   -17.46792   8.08406     
C           -72.58138   -18.78648   8.69007     
C           -76.75586   -4.83459    3.78697     
C           -76.11398   -4.06836    4.944       
C           -75.47211   -3.30213    6.10103     
C           -74.83023   -2.53589    7.25807     
C           -74.18836   -1.76966    8.4151      
C           -73.54648   -1.00343    9.57213     
C           -72.9046    -0.2372     10.72916    
C           -72.26273   0.52904     11.8862     
C           -68.98922   -0.22761    -0.00134    
C           -69.68099   -1.4423     0.02874     
S           -70.15081   1.09487     -0.09699    
H           -71.75623   -2.1659     0.04828     
H           -69.18671   -2.40192    0.02953     
C           -71.0815    -1.32117    0.0237      
C           -71.50222   0.0         0.0         
C           -62.33875   0.1466      -0.10608    
C           -63.2522    -0.84473    0.33653     
C           -62.92509   1.29895     -0.71506    
C           -64.65696   -0.60702    0.2728      
C           -65.20306   0.58303     -0.27554    
C           -65.58443   -1.54166    0.79386     
C           -64.27609   1.51946     -0.79459    
C           -64.7204    2.76322     -1.45637    
N           -66.10077   2.97665     -1.4375     
C           -67.0505    2.12267     -0.86291    
C           -65.13492   -2.78095    1.45642     
N           -63.75771   -3.00159    1.43532     
C           -62.80443   -2.15221    0.85376     
O           -65.90558   -3.60141    1.97709     
O           -61.62132   -2.53783    0.7802      
O           -63.93526   3.5758      -1.96957    
O           -68.2298    2.52279     -0.81137    
C           -66.61588   4.24758     -2.00611    
C           -63.28992   -4.28226    2.02392     
H           -67.03908   3.69946     -2.84788    
H           -66.19268   4.79571     -1.16435    
C           -67.14641   5.55656     -2.59175    
H           -63.7475    -4.82849    1.19909     
H           -62.83234   -3.73602    2.84875     
C           -62.80828   -5.60082    2.62993     
H           -62.29349   2.04395     -1.17581    
H           -67.56444   -2.06692    1.18201     
C           -66.9353    -1.322      0.71762     
C           -66.6085    0.81833     -0.3392     
C           -67.52242   -0.17052    0.10718     
C           -58.3578    0.0         0.0         
C           -58.78759   1.31841     0.00602     
S           -59.7017    -1.1054     0.07459     
H           -60.69118   2.38549     0.02411     
H           -58.11847   2.16788     -0.00061    
C           -60.18922   1.42997     0.0041      
C           -60.87206   0.21013     0.0081      
C           -67.67694   6.86554     -3.17738    
C           -68.20746   8.17451     -3.76302    
C           -68.73799   9.48348     -4.34865    
C           -69.26852   10.79246    -4.93429    
C           -69.79904   12.10143    -5.51993    
C           -70.32957   13.41041    -6.10556    
C           -70.86009   14.71938    -6.6912     
C           -71.39062   16.02836    -7.27683    
C           -71.92115   17.33733    -7.86247    
C           -72.45167   18.6463     -8.4481     
C           -67.74005   4.78768     -3.77253    
C           -68.33369   4.01879     -4.95332    
C           -68.92734   3.2499      -6.13409    
C           -69.52098   2.48102     -7.31487    
C           -70.11461   1.71214     -8.49566    
C           -70.70826   0.94325     -9.67645    
C           -71.3019    0.17436     -10.85722   
C           -71.89554   -0.59452    -12.038     
C           -62.32665   -6.91939    3.23595     
C           -61.84501   -8.23796    3.84196     
C           -61.36338   -9.55652    4.44798     
C           -60.88174   -10.87509   5.05399     
C           -60.40011   -12.19365   5.66        
C           -59.91847   -13.51222   6.26602     
C           -59.43683   -14.83078   6.87203     
C           -58.9552    -16.14935   7.47805     
C           -58.47356   -17.46792   8.08406     
C           -57.99193   -18.78648   8.69007     
C           -62.16641   -4.83459    3.78697     
C           -61.52453   -4.06836    4.944       
C           -60.88266   -3.30213    6.10103     
C           -60.24078   -2.53589    7.25807     
C           -59.59891   -1.76966    8.4151      
C           -58.95703   -1.00343    9.57213     
C           -58.31516   -0.2372     10.72916    
C           -57.67328   0.52904     11.8862     
C           -54.39977   -0.22761    -0.00134    
C           -55.09154   -1.4423     0.02874     
S           -55.56136   1.09487     -0.09699    
H           -57.16678   -2.1659     0.04828     
H           -54.59726   -2.40192    0.02953     
C           -56.49205   -1.32117    0.0237      
C           -56.91277   0.0         0.0         
C           -47.7493    0.1466      -0.10608    
C           -48.66275   -0.84473    0.33653     
C           -48.33565   1.29895     -0.71506    
C           -50.06751   -0.60702    0.2728      
C           -50.61362   0.58303     -0.27554    
C           -50.99498   -1.54166    0.79386     
C           -49.68664   1.51946     -0.79459    
C           -50.13095   2.76322     -1.45637    
N           -51.51132   2.97665     -1.4375     
C           -52.46105   2.12267     -0.86291    
C           -50.54547   -2.78095    1.45642     
N           -49.16826   -3.00159    1.43532     
C           -48.21498   -2.15221    0.85376     
O           -51.31614   -3.60141    1.97709     
O           -47.03187   -2.53783    0.7802      
O           -49.34581   3.5758      -1.96957    
O           -53.64035   2.52279     -0.81137    
C           -52.02644   4.24758     -2.00611    
C           -48.70047   -4.28226    2.02392     
H           -52.44963   3.69946     -2.84788    
H           -51.60324   4.79571     -1.16435    
C           -52.55696   5.55656     -2.59175    
H           -49.15805   -4.82849    1.19909     
H           -48.24289   -3.73602    2.84875     
C           -48.21883   -5.60082    2.62993     
H           -47.70404   2.04395     -1.17581    
H           -52.97499   -2.06692    1.18201     
C           -52.34585   -1.322      0.71762     
C           -52.01906   0.81833     -0.3392     
C           -52.93297   -0.17052    0.10718     
C           -43.76835   0.0         0.0         
C           -44.19815   1.31841     0.00602     
S           -45.11225   -1.1054     0.07459     
H           -46.10173   2.38549     0.02411     
H           -43.52902   2.16788     -0.00061    
C           -45.59977   1.42997     0.0041      
C           -46.28261   0.21013     0.0081      
C           -53.08749   6.86554     -3.17738    
C           -53.61801   8.17451     -3.76302    
C           -54.14854   9.48348     -4.34865    
C           -54.67907   10.79246    -4.93429    
C           -55.20959   12.10143    -5.51993    
C           -55.74012   13.41041    -6.10556    
C           -56.27064   14.71938    -6.6912     
C           -56.80117   16.02836    -7.27683    
C           -57.3317    17.33733    -7.86247    
C           -57.86222   18.6463     -8.4481     
C           -53.1506    4.78768     -3.77253    
C           -53.74424   4.01879     -4.95332    
C           -54.33789   3.2499      -6.13409    
C           -54.93153   2.48102     -7.31487    
C           -55.52517   1.71214     -8.49566    
C           -56.11881   0.94325     -9.67645    
C           -56.71245   0.17436     -10.85722   
C           -57.3061    -0.59452    -12.038     
C           -47.7372    -6.91939    3.23595     
C           -47.25556   -8.23796    3.84196     
C           -46.77393   -9.55652    4.44798     
C           -46.29229   -10.87509   5.05399     
C           -45.81066   -12.19365   5.66        
C           -45.32902   -13.51222   6.26602     
C           -44.84738   -14.83078   6.87203     
C           -44.36575   -16.14935   7.47805     
C           -43.88411   -17.46792   8.08406     
C           -43.40248   -18.78648   8.69007     
C           -47.57696   -4.83459    3.78697     
C           -46.93508   -4.06836    4.944       
C           -46.29321   -3.30213    6.10103     
C           -45.65133   -2.53589    7.25807     
C           -45.00946   -1.76966    8.4151      
C           -44.36758   -1.00343    9.57213     
C           -43.72571   -0.2372     10.72916    
C           -43.08383   0.52904     11.8862     
C           -39.81032   -0.22761    -0.00134    
C           -40.50209   -1.4423     0.02874     
S           -40.97191   1.09487     -0.09699    
H           -42.57733   -2.1659     0.04828     
H           -40.00781   -2.40192    0.02953     
C           -41.9026    -1.32117    0.0237      
C           -42.32332   0.0         0.0         
C           -33.15986   0.1466      -0.10608    
C           -34.07331   -0.84473    0.33653     
C           -33.7462    1.29895     -0.71506    
C           -35.47806   -0.60702    0.2728      
C           -36.02417   0.58303     -0.27554    
C           -36.40553   -1.54166    0.79386     
C           -35.0972    1.51946     -0.79459    
C           -35.5415    2.76322     -1.45637    
N           -36.92187   2.97665     -1.4375     
C           -37.87161   2.12267     -0.86291    
C           -35.95602   -2.78095    1.45642     
N           -34.57882   -3.00159    1.43532     
C           -33.62553   -2.15221    0.85376     
O           -36.72669   -3.60141    1.97709     
O           -32.44242   -2.53783    0.7802      
O           -34.75636   3.5758      -1.96957    
O           -39.0509    2.52279     -0.81137    
C           -37.43699   4.24758     -2.00611    
C           -34.11102   -4.28226    2.02392     
H           -37.86018   3.69946     -2.84788    
H           -37.01379   4.79571     -1.16435    
C           -37.96752   5.55656     -2.59175    
H           -34.5686    -4.82849    1.19909     
H           -33.65344   -3.73602    2.84875     
C           -33.62939   -5.60082    2.62993     
H           -33.11459   2.04395     -1.17581    
H           -38.38555   -2.06692    1.18201     
C           -37.7564    -1.322      0.71762     
C           -37.42961   0.81833     -0.3392     
C           -38.34352   -0.17052    0.10718     
C           -29.1789    0.0         0.0         
C           -29.6087    1.31841     0.00602     
S           -30.5228    -1.1054     0.07459     
H           -31.51229   2.38549     0.02411     
H           -28.93957   2.16788     -0.00061    
C           -31.01032   1.42997     0.0041      
C           -31.69316   0.21013     0.0081      
C           -38.49804   6.86554     -3.17738    
C           -39.02857   8.17451     -3.76302    
C           -39.55909   9.48348     -4.34865    
C           -40.08962   10.79246    -4.93429    
C           -40.62014   12.10143    -5.51993    
C           -41.15067   13.41041    -6.10556    
C           -41.68119   14.71938    -6.6912     
C           -42.21172   16.02836    -7.27683    
C           -42.74225   17.33733    -7.86247    
C           -43.27277   18.6463     -8.4481     
C           -38.56115   4.78768     -3.77253    
C           -39.1548    4.01879     -4.95332    
C           -39.74844   3.2499      -6.13409    
C           -40.34208   2.48102     -7.31487    
C           -40.93572   1.71214     -8.49566    
C           -41.52936   0.94325     -9.67645    
C           -42.123     0.17436     -10.85722   
C           -42.71665   -0.59452    -12.038     
C           -33.14775   -6.91939    3.23595     
C           -32.66611   -8.23796    3.84196     
C           -32.18448   -9.55652    4.44798     
C           -31.70284   -10.87509   5.05399     
C           -31.22121   -12.19365   5.66        
C           -30.73957   -13.51222   6.26602     
C           -30.25794   -14.83078   6.87203     
C           -29.7763    -16.14935   7.47805     
C           -29.29466   -17.46792   8.08406     
C           -28.81303   -18.78648   8.69007     
C           -32.98751   -4.83459    3.78697     
C           -32.34564   -4.06836    4.944       
C           -31.70376   -3.30213    6.10103     
C           -31.06188   -2.53589    7.25807     
C           -30.42001   -1.76966    8.4151      
C           -29.77813   -1.00343    9.57213     
C           -29.13626   -0.2372     10.72916    
C           -28.49438   0.52904     11.8862     
C           -25.22087   -0.22761    -0.00134    
C           -25.91264   -1.4423     0.02874     
S           -26.38246   1.09487     -0.09699    
H           -27.98788   -2.1659     0.04828     
H           -25.41836   -2.40192    0.02953     
C           -27.31315   -1.32117    0.0237      
C           -27.73387   0.0         0.0         
C           -18.57041   0.1466      -0.10608    
C           -19.48386   -0.84473    0.33653     
C           -19.15675   1.29895     -0.71506    
C           -20.88862   -0.60702    0.2728      
C           -21.43472   0.58303     -0.27554    
C           -21.81609   -1.54166    0.79386     
C           -20.50775   1.51946     -0.79459    
C           -20.95205   2.76322     -1.45637    
N           -22.33242   2.97665     -1.4375     
C           -23.28216   2.12267     -0.86291    
C           -21.36657   -2.78095    1.45642     
N           -19.98937   -3.00159    1.43532     
C           -19.03608   -2.15221    0.85376     
O           -22.13724   -3.60141    1.97709     
O           -17.85297   -2.53783    0.7802      
O           -20.16691   3.5758      -1.96957    
O           -24.46145   2.52279     -0.81137    
C           -22.84754   4.24758     -2.00611    
C           -19.52157   -4.28226    2.02392     
H           -23.27073   3.69946     -2.84788    
H           -22.42434   4.79571     -1.16435    
C           -23.37807   5.55656     -2.59175    
H           -19.97916   -4.82849    1.19909     
H           -19.06399   -3.73602    2.84875     
C           -19.03994   -5.60082    2.62993     
H           -18.52514   2.04395     -1.17581    
H           -23.7961    -2.06692    1.18201     
C           -23.16695   -1.322      0.71762     
C           -22.84016   0.81833     -0.3392     
C           -23.75407   -0.17052    0.10718     
C           -14.58945   0.0         0.0         
C           -15.01925   1.31841     0.00602     
S           -15.93335   -1.1054     0.07459     
H           -16.92284   2.38549     0.02411     
H           -14.35012   2.16788     -0.00061    
C           -16.42087   1.42997     0.0041      
C           -17.10371   0.21013     0.0081      
C           -23.90859   6.86554     -3.17738    
C           -24.43912   8.17451     -3.76302    
C           -24.96964   9.48348     -4.34865    
C           -25.50017   10.79246    -4.93429    
C           -26.0307    12.10143    -5.51993    
C           -26.56122   13.41041    -6.10556    
C           -27.09175   14.71938    -6.6912     
C           -27.62227   16.02836    -7.27683    
C           -28.1528    17.33733    -7.86247    
C           -28.68332   18.6463     -8.4481     
C           -23.9717    4.78768     -3.77253    
C           -24.56535   4.01879     -4.95332    
C           -25.15899   3.2499      -6.13409    
C           -25.75263   2.48102     -7.31487    
C           -26.34627   1.71214     -8.49566    
C           -26.93991   0.94325     -9.67645    
C           -27.53356   0.17436     -10.85722   
C           -28.1272    -0.59452    -12.038     
C           -18.5583    -6.91939    3.23595     
C           -18.07667   -8.23796    3.84196     
C           -17.59503   -9.55652    4.44798     
C           -17.11339   -10.87509   5.05399     
C           -16.63176   -12.19365   5.66        
C           -16.15012   -13.51222   6.26602     
C           -15.66849   -14.83078   6.87203     
C           -15.18685   -16.14935   7.47805     
C           -14.70522   -17.46792   8.08406     
C           -14.22358   -18.78648   8.69007     
C           -18.39806   -4.83459    3.78697     
C           -17.75619   -4.06836    4.944       
C           -17.11431   -3.30213    6.10103     
C           -16.47244   -2.53589    7.25807     
C           -15.83056   -1.76966    8.4151      
C           -15.18868   -1.00343    9.57213     
C           -14.54681   -0.2372     10.72916    
C           -13.90493   0.52904     11.8862     
C           -10.63143   -0.22761    -0.00134    
C           -11.32319   -1.4423     0.02874     
S           -11.79301   1.09487     -0.09699    
H           -13.39844   -2.1659     0.04828     
H           -10.82891   -2.40192    0.02953     
C           -12.7237    -1.32117    0.0237      
C           -13.14443   0.0         0.0         
C           -3.98096    0.1466      -0.10608    
C           -4.89441    -0.84473    0.33653     
C           -4.5673     1.29895     -0.71506    
C           -6.29917    -0.60702    0.2728      
C           -6.84527    0.58303     -0.27554    
C           -7.22664    -1.54166    0.79386     
C           -5.9183     1.51946     -0.79459    
C           -6.36261    2.76322     -1.45637    
N           -7.74297    2.97665     -1.4375     
C           -8.69271    2.12267     -0.86291    
C           -6.77712    -2.78095    1.45642     
N           -5.39992    -3.00159    1.43532     
C           -4.44663    -2.15221    0.85376     
O           -7.54779    -3.60141    1.97709     
O           -3.26352    -2.53783    0.7802      
O           -5.57746    3.5758      -1.96957    
O           -9.872      2.52279     -0.81137    
C           -8.25809    4.24758     -2.00611    
C           -4.93212    -4.28226    2.02392     
H           -8.68129    3.69946     -2.84788    
H           -7.83489    4.79571     -1.16435    
C           -8.78862    5.55656     -2.59175    
H           -5.38971    -4.82849    1.19909     
H           -4.47454    -3.73602    2.84875     
C           -4.45049    -5.60082    2.62993     
H           -3.93569    2.04395     -1.17581    
H           -9.20665    -2.06692    1.18201     
C           -8.5775     -1.322      0.71762     
C           -8.25071    0.81833     -0.3392     
C           -9.16463    -0.17052    0.10718     
C           0.0         0.0         0.0         
C           -0.4298     1.31841     0.00602     
S           -1.3439     -1.1054     0.07459     
H           -2.33339    2.38549     0.02411     
H           0.23932     2.16788     -0.00061    
C           -1.83142    1.42997     0.0041      
C           -2.51427    0.21013     0.0081      
C           -9.31914    6.86554     -3.17738    
C           -9.84967    8.17451     -3.76302    
C           -10.38019   9.48348     -4.34865    
C           -10.91072   10.79246    -4.93429    
C           -11.44125   12.10143    -5.51993    
C           -11.97177   13.41041    -6.10556    
C           -12.5023    14.71938    -6.6912     
C           -13.03283   16.02836    -7.27683    
C           -13.56335   17.33733    -7.86247    
C           -14.09388   18.6463     -8.4481     
C           -9.38225    4.78768     -3.77253    
C           -9.9759     4.01879     -4.95332    
C           -10.56954   3.2499      -6.13409    
C           -11.16318   2.48102     -7.31487    
C           -11.75682   1.71214     -8.49566    
C           -12.35046   0.94325     -9.67645    
C           -12.94411   0.17436     -10.85722   
C           -13.53775   -0.59452    -12.038     
C           -3.96885    -6.91939    3.23595     
C           -3.48722    -8.23796    3.84196     
C           -3.00558    -9.55652    4.44798     
C           -2.52395    -10.87509   5.05399     
C           -2.04231    -12.19365   5.66        
C           -1.56067    -13.51222   6.26602     
C           -1.07904    -14.83078   6.87203     
C           -0.5974     -16.14935   7.47805     
C           -0.11577    -17.46792   8.08406     
C           0.36587     -18.78648   8.69007     
C           -3.80861    -4.83459    3.78697     
C           -3.16674    -4.06836    4.944       
C           -2.52486    -3.30213    6.10103     
C           -1.88299    -2.53589    7.25807     
C           -1.24111    -1.76966    8.4151      
C           -0.59924    -1.00343    9.57213     
C           0.04264     -0.2372     10.72916    
C           0.68451     0.52904     11.8862     
H           -145.53947  0.0         0.0         
H           1.09        0.0         0.0         
