113

C           -4.36162    0.5586      0.26738     
C           -5.07732    1.56313     0.90058     
S           -5.46726    -0.63941    -0.44489    
C           -10.47553   -0.67909    -0.45264    
C           -11.0169    0.43225     0.24793     
C           -10.19113   1.3969      0.84316     
C           -8.81756    1.23824     0.73139     
C           -8.27553    0.12629     0.03139     
C           -9.10148    -0.83766    -0.56427    
C           -11.58795   -1.58064    -1.00799    
C           -12.82187   -0.83239    -0.52664    
C           -12.45732   0.29623     0.18002     
C           -7.70483    2.14108     1.284       
C           -6.47203    1.38974     0.8057      
C           -6.83429    0.25936     0.09964     
C           -11.51444   -3.00222    -0.40701    
C           -11.5376    -1.65284    -2.55088    
C           -7.75927    2.22348     2.82581     
C           -7.77405    3.55882     0.67269     
H           -14.70866   -1.80622    -1.16439    
H           -4.59203    2.39317     1.39288     
H           -10.62014   2.24229     1.37582     
H           -8.67234    -1.68256    -1.09746    
H           -12.34182   -2.76263    0.26092     
H           -10.68706   -3.2418     -1.07495    
C           -11.4417    -4.40895    0.18769     
C           -11.48778   -1.72427    -4.0774     
H           -11.65602   -2.73537    -2.50408    
H           -11.41918   -0.5703     -2.59767    
H           -8.59318    2.92221     2.75902     
H           -6.92535    1.52475     2.89259     
C           -7.81315    2.30503     4.35168     
C           -7.84254    4.96146     0.06789     
H           -7.90157    3.12496     -0.31908    
H           -7.64654    3.99268     1.66445     
S           -13.82784   1.18632     0.73603     
C           -14.21786   -1.00214    -0.6347     
C           -14.93518   -0.0        0.0         
C           0.0         0.0         0.0         
C           -0.58355    1.2854      -0.00105    
C           -0.93068    -1.06457    0.05319     
C           0.05651     2.62593     -0.17452    
N           -0.99012    3.54967     -0.23638    
C           -2.23876    2.95381     -0.08478    
C           -0.80592    4.97934     -0.40393    
O           -3.28084    3.5835      -0.09395    
O           1.23139     2.93893     -0.25657    
F           -3.0687     -1.94888    0.1672      
H           -0.59433    -2.09476    0.08624     
H           -1.23205    5.52024     0.4461      
H           -1.29857    5.32186     -1.31846    
H           0.26684     5.16522     -0.46652    
C           -2.28885    -0.84933    0.11144     
C           -1.98108    1.47987     0.06384     
C           -2.91096    0.42323     0.14135     
C           -11.43796   -1.7957     -5.60392    
C           -11.38813   -1.86714    -7.13043    
C           -11.33831   -1.93857    -8.65695    
C           -11.2885    -2.01001    -10.18346   
C           -11.23868   -2.08144    -11.70998   
C           -11.18885   -2.15288    -13.2365    
C           -11.13903   -2.22431    -14.76301   
C           -11.08921   -2.29575    -16.28954   
C           -11.03939   -2.36719    -17.81606   
C           -10.98957   -2.43862    -19.34257   
C           -10.93975   -2.51006    -20.86909   
C           -10.88993   -2.58149    -22.39561   
C           -10.8401    -2.65293    -23.92212   
C           -10.79029   -2.72437    -25.44864   
C           -7.91102    6.36408     -0.5369     
C           -7.9795     7.76672     -1.14169    
C           -8.04799    9.16935     -1.74648    
C           -8.11648    10.57198    -2.35127    
C           -8.18496    11.97462    -2.95607    
C           -8.25344    13.37725    -3.56086    
C           -8.32193    14.77988    -4.16565    
C           -8.39041    16.18252    -4.77044    
C           -8.45889    17.58514    -5.37523    
C           -8.52738    18.98777    -5.98003    
C           -8.59587    20.39041    -6.58483    
C           -8.66435    21.79304    -7.18962    
C           -8.73283    23.19567    -7.79441    
C           -8.80132    24.5983     -8.39921    
C           -11.36897   -5.81567    0.78239     
C           -11.29622   -7.22241    1.37707     
C           -11.22347   -8.62913    1.97177     
C           -11.15074   -10.03585   2.56647     
C           -11.078     -11.44259   3.16117     
C           -11.00525   -12.84932   3.75587     
C           -10.93251   -14.25605   4.35057     
C           -10.85978   -15.66277   4.94526     
C           -10.78703   -17.0695    5.53996     
C           -10.71428   -18.47623   6.13465     
C           -10.64155   -19.88296   6.72935     
C           -10.56881   -21.28969   7.32405     
C           -10.49606   -22.69642   7.91875     
C           -10.42333   -24.10315   8.51344     
C           -7.86702    2.38658     5.87755     
C           -7.9209     2.46813     7.40342     
C           -7.97478    2.54968     8.9293      
C           -8.02866    2.63123     10.45517    
C           -8.08253    2.71278     11.98104    
C           -8.13641    2.79433     13.50692    
C           -8.19029    2.87588     15.03279    
C           -8.24417    2.95743     16.55866    
C           -8.29804    3.03898     18.08453    
C           -8.35192    3.12053     19.61041    
C           -8.4058     3.20208     21.13628    
C           -8.45967    3.28363     22.66215    
C           -8.51355    3.36518     24.18802    
C           -8.56743    3.44673     25.7139     
H           -16.02518   -0.0        0.0         
H           1.09        0.0         0.0         
