93

C           -7.7791     0.59551     0.05498     
S           -8.74415    2.07534     0.27146     
C           -8.58636    -0.51982    -0.09504    
C           -9.96237    -0.21124    -0.04543    
C           -10.22639   1.1575      0.14215     
S           -11.41748   -1.17933    -0.17984    
C           -12.38881   0.27166     0.01908     
C           -11.60121   1.419       0.17662     
C           -13.75734   0.65588     0.07298     
C           -13.74231   2.14844     0.27846     
N           -12.40601   2.54379     0.33177     
C           -11.97585   3.91397     0.52094     
O           -14.69842   2.90664     0.3836      
H           -12.22508   3.84602     1.57988     
H           -11.72662   3.98193     -0.538      
C           -11.52179   5.36028     0.72063     
C           -14.93683   -0.05467    -0.02462    
C           -14.95139   -1.54855    -0.2302     
N           -16.28711   -1.94449    -0.28309    
C           -17.09198   -0.8198     -0.12769    
C           -16.30461   0.32812     0.02949     
C           -18.46688   -0.55973    -0.0932     
C           -18.73178   0.80862     0.09459     
S           -17.27818   1.77838     0.22865     
C           -16.71732   -3.31477    -0.47222    
H           -16.4681    -3.24685    -1.53117    
H           -16.96653   -3.38268    0.58673     
C           -17.17139   -4.76108    -0.67183    
O           -13.99478   -2.30574    -0.33521    
H           -8.18885    -1.51717    -0.24694    
H           -20.50776   2.11178     0.30517     
C           -20.10881   1.11587     0.14817     
S           -19.9491    -1.47823    -0.22241    
C           -20.91448   -0.0        0.0         
C           0.0         0.0         0.0         
S           -1.25474    -1.26586    0.018       
C           -0.54734    1.27355     0.01629     
C           -1.95756    1.23848     0.03855     
C           -2.50706    -0.05889    0.03051     
N           -2.97787    2.17419     0.07018     
C           -4.17093    1.47163     0.05842     
C           -3.90437    0.08835     0.04315     
C           -2.8272     3.61386     -0.01464    
H           -3.30348    3.72112     0.95991     
H           -2.35092    3.5066      -0.98919    
C           -2.66832    5.13195     -0.10408    
H           -5.94557    2.80699     0.04891     
H           0.05594     2.17407     -0.00475    
C           -5.5432     1.80041     0.06096     
S           -5.38116    -0.83085    0.0551      
C           -6.34434    0.66913     0.05687     
C           -11.06774   6.80658     0.92031     
C           -10.61367   8.25289     1.11999     
C           -10.15962   9.69919     1.31968     
C           -9.70556    11.1455     1.51937     
C           -9.2515     12.5918     1.71906     
C           -8.79744    14.03811    1.91874     
C           -8.34338    15.48442    2.11842     
C           -7.88933    16.93072    2.31811     
C           -7.43527    18.37702    2.5178      
C           -6.98121    19.82332    2.71748     
C           -11.17218   5.45561     -0.76481    
C           -10.82256   5.55094     -2.25025    
C           -10.47296   5.64627     -3.73569    
C           -10.12334   5.7416      -5.22112    
C           -9.77373    5.83693     -6.70656    
C           -9.42411    5.93226     -8.192      
C           -9.0745     6.02759     -9.67744    
C           -8.72489    6.12292     -11.16287   
C           -17.62547   -6.20739    -0.87145    
C           -18.07955   -7.6537     -1.07107    
C           -18.53362   -9.1        -1.27069    
C           -18.9877    -10.54632   -1.47031    
C           -19.44177   -11.99262   -1.66992    
C           -19.89585   -13.43893   -1.86955    
C           -20.34992   -14.88524   -2.06917    
C           -20.80399   -16.33155   -2.26878    
C           -21.25808   -17.77785   -2.46841    
C           -21.71215   -19.22417   -2.66802    
C           -17.52098   -4.85634    0.81361     
C           -17.87058   -4.95161    2.29906     
C           -18.22016   -5.04687    3.7845      
C           -18.56975   -5.14213    5.26995     
C           -18.91935   -5.23741    6.75539     
C           -19.26894   -5.33267    8.24084     
C           -19.61853   -5.42793    9.72629     
C           -19.96813   -5.5232     11.21174    
C           -2.50944    6.65004     -0.19352    
C           -2.35056    8.16813     -0.28296    
C           -2.19169    9.68622     -0.3724     
C           -2.03281    11.20431    -0.46184    
H           -22.00448   -0.0        0.0         
H           1.09        0.0         0.0         
