772

C           -139.32888  -0.52529    -0.13584    
C           -140.02166  0.61136     -0.59361    
C           -140.07818  -1.64706    0.28274     
C           -141.45741  -1.5908     0.20833     
C           -142.17239  -0.45885    -0.27078    
C           -141.41235  0.65416     -0.66019    
N           -142.35054  -2.57942    0.60765     
C           -143.65896  -2.15506    0.44742     
C           -143.60314  -0.7561     -0.14558    
O           -144.62367  -2.85709    0.71782     
C           -141.99746  -3.88016    1.13363     
C           -144.73318  -0.03937    -0.48409    
C           -146.15685  -0.25161    -0.2043     
C           -146.87679  0.79635     -0.83843    
N           -145.99708  1.63341     -1.51668    
C           -144.68866  1.21788     -1.33977    
C           -146.90229  -1.16118    0.5622      
O           -143.73373  1.78916     -1.84816    
C           -146.36252  2.79713     -2.29538    
H           -141.90553  1.53685     -1.03579    
H           -139.58129  -2.52194    0.68693     
H           -139.46052  1.47609     -0.93513    
H           -148.75726  1.7315      -1.29449    
H           -146.40294  -1.96981    1.0723      
H           -148.83239  -1.72735    1.28328     
H           -142.20552  -3.52807    2.144       
H           -141.78939  -4.23224    0.12326     
C           -141.62431  -5.2548     1.68948     
H           -146.04303  2.28873     -3.20508    
C           -146.74864  4.02669     -3.11814    
H           -146.68202  3.30553     -1.38568    
C           -148.28472  -1.02741    0.66078     
C           -148.2514   0.93282     -0.76178    
C           -148.98543  0.0         -0.0        
C           -135.40162  0.0         -0.0        
C           -135.66328  -1.35623    -0.01433    
S           -136.90794  0.89722     -0.03163    
H           -137.41468  -2.68904    -0.11667    
H           -134.87991  -2.10565    -0.02933    
C           -137.04094  -1.67256    -0.06118    
C           -137.86989  -0.56756    -0.08497    
C           -141.25117  -6.62943    2.24534     
C           -140.87803  -8.00407    2.8012      
C           -140.50489  -9.37871    3.35706     
C           -140.13174  -10.75334   3.91291     
C           -139.7586   -12.12798   4.46877     
C           -139.38545  -13.50262   5.02463     
C           -139.01231  -14.87726   5.58049     
C           -138.63917  -16.2519    6.13634     
C           -138.26603  -17.62653   6.6922      
C           -137.89289  -19.00117   7.24806     
C           -141.91618  -4.76092    3.10679     
C           -142.20805  -4.26703    4.52408     
C           -142.49991  -3.77315    5.94138     
C           -142.79178  -3.27927    7.35868     
C           -143.08364  -2.78538    8.77598     
C           -143.37551  -2.29151    10.19327    
C           -143.66738  -1.79763    11.61058    
C           -143.95924  -1.30374    13.02788    
C           -147.13476  5.25625     -3.9409     
C           -147.52088  6.48581     -4.76366    
C           -147.907    7.71537     -5.58642    
C           -148.29311  8.94493     -6.40918    
C           -148.67923  10.17449    -7.23194    
C           -149.06535  11.40405    -8.05471    
C           -149.45147  12.63361    -8.87747    
C           -149.83759  13.86317    -9.70023    
C           -150.22371  15.09273    -10.52299   
C           -150.60982  16.3223     -11.34575   
C           -146.30047  3.31354     -4.39423    
C           -145.8523   2.60038     -5.67031    
C           -145.40412  1.88723     -6.9464     
C           -144.95595  1.17408     -8.22249    
C           -144.50778  0.46092     -9.49857    
C           -144.05961  -0.25223    -10.77466   
C           -143.61144  -0.96538    -12.05074   
C           -143.16327  -1.67854    -13.32683   
C           -124.28425  -0.52644    -0.13132    
C           -124.97704  0.60624     -0.59885    
C           -125.03355  -1.64457    0.29689     
C           -126.41279  -1.58895    0.22199     
C           -127.12776  -0.46116    -0.26683    
C           -126.36773  0.64846     -0.66579    
N           -127.30592  -2.5741     0.6298      
C           -128.61434  -2.15113    0.46593     
C           -128.55852  -0.75732    -0.13907    
O           -129.57905  -2.85081    0.74235     
C           -126.95284  -3.87027    1.16694     
C           -129.68856  -0.04353    -0.48373    
C           -131.11222  -0.25335    -0.20213    
C           -131.83216  0.78911     -0.84525    
N           -130.95246  1.62032     -1.53067    
C           -129.64404  1.20632     -1.35019    
C           -131.85766  -1.1563     0.57216     
O           -128.6891   1.77321     -1.86347    
C           -131.3179   2.7773      -2.31934    
H           -126.8609   1.5279      -1.04896    
H           -124.53666  -2.51594    0.70859     
H           -124.41589  1.468       -0.94778    
H           -133.71263  1.72031     -1.30932    
H           -131.35832  -1.96052    1.08919     
H           -133.78777  -1.71625    1.29808     
H           -127.1609   -3.50952    2.17425     
H           -126.74477  -4.23103    0.15963     
C           -126.57968  -5.24008    1.73459     
H           -130.9984   2.2611      -3.22464    
C           -131.70402  3.99974     -3.15264    
H           -131.63739  3.29349     -1.41404    
C           -133.2401   -1.02169    0.66959     
C           -133.20678  0.92624     -0.76977    
C           -133.94081  0.0         -0.0        
C           -120.35699  0.0         -0.0        
C           -120.61865  -1.3563     -0.00267    
S           -121.86331  0.89692     -0.03934    
H           -122.37005  -2.68994    -0.09355    
H           -119.83529  -2.10582    -0.01123    
C           -121.99632  -1.67303    -0.0468     
C           -122.82527  -0.56827    -0.08009    
C           -126.20655  -6.60988    2.30224     
C           -125.8334   -7.9797     2.8699      
C           -125.46026  -9.34951    3.43755     
C           -125.08712  -10.71931   4.00519     
C           -124.71398  -12.08912   4.57285     
C           -124.34083  -13.45893   5.14051     
C           -123.96769  -14.82875   5.70816     
C           -123.59454  -16.19855   6.27581     
C           -123.2214   -17.56836   6.84347     
C           -122.84826  -18.93817   7.41112     
C           -126.87156  -4.73404    3.14759     
C           -127.16343  -4.22798    4.56059     
C           -127.45529  -3.72194    5.97359     
C           -127.74715  -3.21589    7.38659     
C           -128.03902  -2.70985    8.7996      
C           -128.33089  -2.20381    10.21259    
C           -128.62275  -1.69776    11.6256     
C           -128.91462  -1.19171    13.0386     
C           -132.09013  5.22218     -3.98594    
C           -132.47625  6.44463     -4.81924    
C           -132.86237  7.66707     -5.65254    
C           -133.24849  8.88951     -6.48583    
C           -133.63461  10.11195    -7.31913    
C           -134.02073  11.3344     -8.15243    
C           -134.40684  12.55684    -8.98573    
C           -134.79296  13.77928    -9.81903    
C           -135.17908  15.00173    -10.65233   
C           -135.5652   16.22417    -11.48562   
C           -131.25584  3.27564     -4.42255    
C           -130.80767  2.55155     -5.69246    
C           -130.3595   1.82745     -6.96237    
C           -129.91133  1.10336     -8.23227    
C           -129.46316  0.37926     -9.50218    
C           -129.01499  -0.34484    -10.77209   
C           -128.56681  -1.06893    -12.042     
C           -128.11864  -1.79303    -13.31191   
C           -109.23963  -0.52644    -0.13132    
C           -109.93242  0.60624     -0.59885    
C           -109.98893  -1.64457    0.29689     
C           -111.36816  -1.58895    0.22199     
C           -112.08314  -0.46116    -0.26683    
C           -111.32311  0.64846     -0.66579    
N           -112.2613   -2.5741     0.6298      
C           -113.56972  -2.15113    0.46593     
C           -113.51389  -0.75732    -0.13907    
O           -114.53442  -2.85081    0.74235     
C           -111.90821  -3.87027    1.16694     
C           -114.64393  -0.04353    -0.48373    
C           -116.0676   -0.25335    -0.20213    
C           -116.78754  0.78911     -0.84525    
N           -115.90783  1.62032     -1.53067    
C           -114.59941  1.20632     -1.35019    
C           -116.81304  -1.1563     0.57216     
O           -113.64448  1.77321     -1.86347    
C           -116.27327  2.7773      -2.31934    
H           -111.81628  1.5279      -1.04896    
H           -109.49204  -2.51594    0.70859     
H           -109.37127  1.468       -0.94778    
H           -118.66801  1.72031     -1.30932    
H           -116.3137   -1.96052    1.08919     
H           -118.74315  -1.71625    1.29808     
H           -112.11627  -3.50952    2.17425     
H           -111.70014  -4.23103    0.15963     
C           -111.53506  -5.24008    1.73459     
H           -115.95378  2.2611      -3.22464    
C           -116.65939  3.99974     -3.15264    
H           -116.59277  3.29349     -1.41404    
C           -118.19547  -1.02169    0.66959     
C           -118.16216  0.92624     -0.76977    
C           -118.89618  0.0         -0.0        
C           -105.31237  0.0         -0.0        
C           -105.57403  -1.3563     -0.00267    
S           -106.81869  0.89692     -0.03934    
H           -107.32543  -2.68994    -0.09355    
H           -104.79066  -2.10582    -0.01123    
C           -106.9517   -1.67303    -0.0468     
C           -107.78064  -0.56827    -0.08009    
C           -111.16192  -6.60988    2.30224     
C           -110.78878  -7.9797     2.8699      
C           -110.41564  -9.34951    3.43755     
C           -110.0425   -10.71931   4.00519     
C           -109.66936  -12.08912   4.57285     
C           -109.2962   -13.45893   5.14051     
C           -108.92306  -14.82875   5.70816     
C           -108.54992  -16.19855   6.27581     
C           -108.17678  -17.56836   6.84347     
C           -107.80364  -18.93817   7.41112     
C           -111.82693  -4.73404    3.14759     
C           -112.1188   -4.22798    4.56059     
C           -112.41066  -3.72194    5.97359     
C           -112.70253  -3.21589    7.38659     
C           -112.99439  -2.70985    8.7996      
C           -113.28626  -2.20381    10.21259    
C           -113.57813  -1.69776    11.6256     
C           -113.86999  -1.19171    13.0386     
C           -117.04551  5.22218     -3.98594    
C           -117.43163  6.44463     -4.81924    
C           -117.81775  7.66707     -5.65254    
C           -118.20387  8.88951     -6.48583    
C           -118.58998  10.11195    -7.31913    
C           -118.9761   11.3344     -8.15243    
C           -119.36222  12.55684    -8.98573    
C           -119.74834  13.77928    -9.81903    
C           -120.13446  15.00173    -10.65233   
C           -120.52058  16.22417    -11.48562   
C           -116.21122  3.27564     -4.42255    
C           -115.76305  2.55155     -5.69246    
C           -115.31488  1.82745     -6.96237    
C           -114.8667   1.10336     -8.23227    
C           -114.41853  0.37926     -9.50218    
C           -113.97036  -0.34484    -10.77209   
C           -113.52219  -1.06893    -12.042     
C           -113.07402  -1.79303    -13.31191   
C           -94.195     -0.52644    -0.13132    
C           -94.88779   0.60624     -0.59885    
C           -94.9443    -1.64457    0.29689     
C           -96.32354   -1.58895    0.22199     
C           -97.03851   -0.46116    -0.26683    
C           -96.27848   0.64846     -0.66579    
N           -97.21667   -2.5741     0.6298      
C           -98.52509   -2.15113    0.46593     
C           -98.46927   -0.75732    -0.13907    
O           -99.4898    -2.85081    0.74235     
C           -96.86359   -3.87027    1.16694     
C           -99.59931   -0.04353    -0.48373    
C           -101.02297  -0.25335    -0.20213    
C           -101.74291  0.78911     -0.84525    
N           -100.86321  1.62032     -1.53067    
C           -99.55479   1.20632     -1.35019    
C           -101.76841  -1.1563     0.57216     
O           -98.59986   1.77321     -1.86347    
C           -101.22865  2.7773      -2.31934    
H           -96.77165   1.5279      -1.04896    
H           -94.44741   -2.51594    0.70859     
H           -94.32665   1.468       -0.94778    
H           -103.62339  1.72031     -1.30932    
H           -101.26907  -1.96052    1.08919     
H           -103.69852  -1.71625    1.29808     
H           -97.07165   -3.50952    2.17425     
H           -96.65552   -4.23103    0.15963     
C           -96.49044   -5.24008    1.73459     
H           -100.90915  2.2611      -3.22464    
C           -101.61477  3.99974     -3.15264    
H           -101.54814  3.29349     -1.41404    
C           -103.15085  -1.02169    0.66959     
C           -103.11753  0.92624     -0.76977    
C           -103.85156  0.0         -0.0        
C           -90.26774   0.0         -0.0        
C           -90.5294    -1.3563     -0.00267    
S           -91.77406   0.89692     -0.03934    
H           -92.28081   -2.68994    -0.09355    
H           -89.74604   -2.10582    -0.01123    
C           -91.90707   -1.67303    -0.0468     
C           -92.73602   -0.56827    -0.08009    
C           -96.1173    -6.60988    2.30224     
C           -95.74416   -7.9797     2.8699      
C           -95.37101   -9.34951    3.43755     
C           -94.99787   -10.71931   4.00519     
C           -94.62473   -12.08912   4.57285     
C           -94.25158   -13.45893   5.14051     
C           -93.87844   -14.82875   5.70816     
C           -93.5053    -16.19855   6.27581     
C           -93.13216   -17.56836   6.84347     
C           -92.75901   -18.93817   7.41112     
C           -96.78231   -4.73404    3.14759     
C           -97.07418   -4.22798    4.56059     
C           -97.36604   -3.72194    5.97359     
C           -97.6579    -3.21589    7.38659     
C           -97.94977   -2.70985    8.7996      
C           -98.24164   -2.20381    10.21259    
C           -98.5335    -1.69776    11.6256     
C           -98.82537   -1.19171    13.0386     
C           -102.00089  5.22218     -3.98594    
C           -102.387    6.44463     -4.81924    
C           -102.77312  7.66707     -5.65254    
C           -103.15924  8.88951     -6.48583    
C           -103.54536  10.11195    -7.31913    
C           -103.93148  11.3344     -8.15243    
C           -104.3176   12.55684    -8.98573    
C           -104.70371  13.77928    -9.81903    
C           -105.08983  15.00173    -10.65233   
C           -105.47595  16.22417    -11.48562   
C           -101.1666   3.27564     -4.42255    
C           -100.71842  2.55155     -5.69246    
C           -100.27025  1.82745     -6.96237    
C           -99.82208   1.10336     -8.23227    
C           -99.37391   0.37926     -9.50218    
C           -98.92574   -0.34484    -10.77209   
C           -98.47757   -1.06893    -12.042     
C           -98.02939   -1.79303    -13.31191   
C           -79.15038   -0.52644    -0.13132    
C           -79.84317   0.60624     -0.59885    
C           -79.89968   -1.64457    0.29689     
C           -81.27891   -1.58895    0.22199     
C           -81.99389   -0.46116    -0.26683    
C           -81.23386   0.64846     -0.66579    
N           -82.17205   -2.5741     0.6298      
C           -83.48047   -2.15113    0.46593     
C           -83.42464   -0.75732    -0.13907    
O           -84.44517   -2.85081    0.74235     
C           -81.81896   -3.87027    1.16694     
C           -84.55468   -0.04353    -0.48373    
C           -85.97835   -0.25335    -0.20213    
C           -86.69829   0.78911     -0.84525    
N           -85.81858   1.62032     -1.53067    
C           -84.51016   1.20632     -1.35019    
C           -86.72379   -1.1563     0.57216     
O           -83.55523   1.77321     -1.86347    
C           -86.18403   2.7773      -2.31934    
H           -81.72703   1.5279      -1.04896    
H           -79.40279   -2.51594    0.70859     
H           -79.28202   1.468       -0.94778    
H           -88.57876   1.72031     -1.30932    
H           -86.22445   -1.96052    1.08919     
H           -88.6539    -1.71625    1.29808     
H           -82.02702   -3.50952    2.17425     
H           -81.61089   -4.23103    0.15963     
C           -81.44581   -5.24008    1.73459     
H           -85.86453   2.2611      -3.22464    
C           -86.57014   3.99974     -3.15264    
H           -86.50352   3.29349     -1.41404    
C           -88.10622   -1.02169    0.66959     
C           -88.07291   0.92624     -0.76977    
C           -88.80693   0.0         -0.0        
C           -75.22312   0.0         -0.0        
C           -75.48478   -1.3563     -0.00267    
S           -76.72944   0.89692     -0.03934    
H           -77.23618   -2.68994    -0.09355    
H           -74.70142   -2.10582    -0.01123    
C           -76.86245   -1.67303    -0.0468     
C           -77.69139   -0.56827    -0.08009    
C           -81.07267   -6.60988    2.30224     
C           -80.69953   -7.9797     2.8699      
C           -80.32639   -9.34951    3.43755     
C           -79.95325   -10.71931   4.00519     
C           -79.58011   -12.08912   4.57285     
C           -79.20696   -13.45893   5.14051     
C           -78.83381   -14.82875   5.70816     
C           -78.46067   -16.19855   6.27581     
C           -78.08753   -17.56836   6.84347     
C           -77.71439   -18.93817   7.41112     
C           -81.73769   -4.73404    3.14759     
C           -82.02955   -4.22798    4.56059     
C           -82.32141   -3.72194    5.97359     
C           -82.61328   -3.21589    7.38659     
C           -82.90514   -2.70985    8.7996      
C           -83.19701   -2.20381    10.21259    
C           -83.48888   -1.69776    11.6256     
C           -83.78074   -1.19171    13.0386     
C           -86.95626   5.22218     -3.98594    
C           -87.34238   6.44463     -4.81924    
C           -87.7285    7.66707     -5.65254    
C           -88.11462   8.88951     -6.48583    
C           -88.50074   10.11195    -7.31913    
C           -88.88685   11.3344     -8.15243    
C           -89.27297   12.55684    -8.98573    
C           -89.65909   13.77928    -9.81903    
C           -90.04521   15.00173    -10.65233   
C           -90.43133   16.22417    -11.48562   
C           -86.12197   3.27564     -4.42255    
C           -85.6738    2.55155     -5.69246    
C           -85.22563   1.82745     -6.96237    
C           -84.77746   1.10336     -8.23227    
C           -84.32928   0.37926     -9.50218    
C           -83.88111   -0.34484    -10.77209   
C           -83.43294   -1.06893    -12.042     
C           -82.98477   -1.79303    -13.31191   
C           -64.10576   -0.52644    -0.13132    
C           -64.79854   0.60624     -0.59885    
C           -64.85506   -1.64457    0.29689     
C           -66.23429   -1.58895    0.22199     
C           -66.94926   -0.46116    -0.26683    
C           -66.18923   0.64846     -0.66579    
N           -67.12742   -2.5741     0.6298      
C           -68.43584   -2.15113    0.46593     
C           -68.38002   -0.75732    -0.13907    
O           -69.40055   -2.85081    0.74235     
C           -66.77434   -3.87027    1.16694     
C           -69.51006   -0.04353    -0.48373    
C           -70.93373   -0.25335    -0.20213    
C           -71.65367   0.78911     -0.84525    
N           -70.77396   1.62032     -1.53067    
C           -69.46554   1.20632     -1.35019    
C           -71.67916   -1.1563     0.57216     
O           -68.51061   1.77321     -1.86347    
C           -71.1394    2.7773      -2.31934    
H           -66.68241   1.5279      -1.04896    
H           -64.35817   -2.51594    0.70859     
H           -64.2374    1.468       -0.94778    
H           -73.53414   1.72031     -1.30932    
H           -71.17982   -1.96052    1.08919     
H           -73.60927   -1.71625    1.29808     
H           -66.9824    -3.50952    2.17425     
H           -66.56627   -4.23103    0.15963     
C           -66.40119   -5.24008    1.73459     
H           -70.81991   2.2611      -3.22464    
C           -71.52552   3.99974     -3.15264    
H           -71.4589    3.29349     -1.41404    
C           -73.0616    -1.02169    0.66959     
C           -73.02828   0.92624     -0.76977    
C           -73.76231   0.0         -0.0        
C           -60.1785    0.0         -0.0        
C           -60.44015   -1.3563     -0.00267    
S           -61.68482   0.89692     -0.03934    
H           -62.19156   -2.68994    -0.09355    
H           -59.65679   -2.10582    -0.01123    
C           -61.81782   -1.67303    -0.0468     
C           -62.64677   -0.56827    -0.08009    
C           -66.02805   -6.60988    2.30224     
C           -65.65491   -7.9797     2.8699      
C           -65.28176   -9.34951    3.43755     
C           -64.90862   -10.71931   4.00519     
C           -64.53548   -12.08912   4.57285     
C           -64.16233   -13.45893   5.14051     
C           -63.78919   -14.82875   5.70816     
C           -63.41605   -16.19855   6.27581     
C           -63.04291   -17.56836   6.84347     
C           -62.66977   -18.93817   7.41112     
C           -66.69306   -4.73404    3.14759     
C           -66.98493   -4.22798    4.56059     
C           -67.27679   -3.72194    5.97359     
C           -67.56865   -3.21589    7.38659     
C           -67.86052   -2.70985    8.7996      
C           -68.15239   -2.20381    10.21259    
C           -68.44425   -1.69776    11.6256     
C           -68.73612   -1.19171    13.0386     
C           -71.91164   5.22218     -3.98594    
C           -72.29776   6.44463     -4.81924    
C           -72.68387   7.66707     -5.65254    
C           -73.06999   8.88951     -6.48583    
C           -73.45611   10.11195    -7.31913    
C           -73.84223   11.3344     -8.15243    
C           -74.22835   12.55684    -8.98573    
C           -74.61447   13.77928    -9.81903    
C           -75.00058   15.00173    -10.65233   
C           -75.3867    16.22417    -11.48562   
C           -71.07735   3.27564     -4.42255    
C           -70.62918   2.55155     -5.69246    
C           -70.181     1.82745     -6.96237    
C           -69.73283   1.10336     -8.23227    
C           -69.28466   0.37926     -9.50218    
C           -68.83649   -0.34484    -10.77209   
C           -68.38832   -1.06893    -12.042     
C           -67.94015   -1.79303    -13.31191   
C           -49.06113   -0.52644    -0.13132    
C           -49.75392   0.60624     -0.59885    
C           -49.81043   -1.64457    0.29689     
C           -51.18967   -1.58895    0.22199     
C           -51.90464   -0.46116    -0.26683    
C           -51.14461   0.64846     -0.66579    
N           -52.0828    -2.5741     0.6298      
C           -53.39122   -2.15113    0.46593     
C           -53.3354    -0.75732    -0.13907    
O           -54.35593   -2.85081    0.74235     
C           -51.72972   -3.87027    1.16694     
C           -54.46543   -0.04353    -0.48373    
C           -55.8891    -0.25335    -0.20213    
C           -56.60904   0.78911     -0.84525    
N           -55.72934   1.62032     -1.53067    
C           -54.42092   1.20632     -1.35019    
C           -56.63454   -1.1563     0.57216     
O           -53.46598   1.77321     -1.86347    
C           -56.09478   2.7773      -2.31934    
H           -51.63778   1.5279      -1.04896    
H           -49.31354   -2.51594    0.70859     
H           -49.19277   1.468       -0.94778    
H           -58.48951   1.72031     -1.30932    
H           -56.1352    -1.96052    1.08919     
H           -58.56465   -1.71625    1.29808     
H           -51.93778   -3.50952    2.17425     
H           -51.52165   -4.23103    0.15963     
C           -51.35656   -5.24008    1.73459     
H           -55.77528   2.2611      -3.22464    
C           -56.4809    3.99974     -3.15264    
H           -56.41427   3.29349     -1.41404    
C           -58.01698   -1.02169    0.66959     
C           -57.98366   0.92624     -0.76977    
C           -58.71769   0.0         -0.0        
C           -45.13387   0.0         -0.0        
C           -45.39553   -1.3563     -0.00267    
S           -46.64019   0.89692     -0.03934    
H           -47.14693   -2.68994    -0.09355    
H           -44.61217   -2.10582    -0.01123    
C           -46.7732    -1.67303    -0.0468     
C           -47.60215   -0.56827    -0.08009    
C           -50.98343   -6.60988    2.30224     
C           -50.61028   -7.9797     2.8699      
C           -50.23714   -9.34951    3.43755     
C           -49.864     -10.71931   4.00519     
C           -49.49086   -12.08912   4.57285     
C           -49.11771   -13.45893   5.14051     
C           -48.74456   -14.82875   5.70816     
C           -48.37142   -16.19855   6.27581     
C           -47.99828   -17.56836   6.84347     
C           -47.62514   -18.93817   7.41112     
C           -51.64844   -4.73404    3.14759     
C           -51.9403    -4.22798    4.56059     
C           -52.23217   -3.72194    5.97359     
C           -52.52403   -3.21589    7.38659     
C           -52.8159    -2.70985    8.7996      
C           -53.10777   -2.20381    10.21259    
C           -53.39963   -1.69776    11.6256     
C           -53.69149   -1.19171    13.0386     
C           -56.86701   5.22218     -3.98594    
C           -57.25313   6.44463     -4.81924    
C           -57.63925   7.66707     -5.65254    
C           -58.02537   8.88951     -6.48583    
C           -58.41149   10.11195    -7.31913    
C           -58.79761   11.3344     -8.15243    
C           -59.18372   12.55684    -8.98573    
C           -59.56984   13.77928    -9.81903    
C           -59.95596   15.00173    -10.65233   
C           -60.34208   16.22417    -11.48562   
C           -56.03272   3.27564     -4.42255    
C           -55.58455   2.55155     -5.69246    
C           -55.13638   1.82745     -6.96237    
C           -54.68821   1.10336     -8.23227    
C           -54.24004   0.37926     -9.50218    
C           -53.79186   -0.34484    -10.77209   
C           -53.34369   -1.06893    -12.042     
C           -52.89552   -1.79303    -13.31191   
C           -34.01651   -0.52644    -0.13132    
C           -34.70929   0.60624     -0.59885    
C           -34.76581   -1.64457    0.29689     
C           -36.14504   -1.58895    0.22199     
C           -36.86002   -0.46116    -0.26683    
C           -36.09999   0.64846     -0.66579    
N           -37.03818   -2.5741     0.6298      
C           -38.3466    -2.15113    0.46593     
C           -38.29077   -0.75732    -0.13907    
O           -39.3113    -2.85081    0.74235     
C           -36.68509   -3.87027    1.16694     
C           -39.42081   -0.04353    -0.48373    
C           -40.84448   -0.25335    -0.20213    
C           -41.56442   0.78911     -0.84525    
N           -40.68471   1.62032     -1.53067    
C           -39.37629   1.20632     -1.35019    
C           -41.58992   -1.1563     0.57216     
O           -38.42136   1.77321     -1.86347    
C           -41.05015   2.7773      -2.31934    
H           -36.59316   1.5279      -1.04896    
H           -34.26892   -2.51594    0.70859     
H           -34.14815   1.468       -0.94778    
H           -43.44489   1.72031     -1.30932    
H           -41.09057   -1.96052    1.08919     
H           -43.52003   -1.71625    1.29808     
H           -36.89315   -3.50952    2.17425     
H           -36.47702   -4.23103    0.15963     
C           -36.31194   -5.24008    1.73459     
H           -40.73066   2.2611      -3.22464    
C           -41.43627   3.99974     -3.15264    
H           -41.36965   3.29349     -1.41404    
C           -42.97235   -1.02169    0.66959     
C           -42.93904   0.92624     -0.76977    
C           -43.67306   0.0         -0.0        
C           -30.08925   0.0         -0.0        
C           -30.35091   -1.3563     -0.00267    
S           -31.59557   0.89692     -0.03934    
H           -32.10231   -2.68994    -0.09355    
H           -29.56754   -2.10582    -0.01123    
C           -31.72857   -1.67303    -0.0468     
C           -32.55752   -0.56827    -0.08009    
C           -35.9388    -6.60988    2.30224     
C           -35.56566   -7.9797     2.8699      
C           -35.19252   -9.34951    3.43755     
C           -34.81938   -10.71931   4.00519     
C           -34.44624   -12.08912   4.57285     
C           -34.07308   -13.45893   5.14051     
C           -33.69994   -14.82875   5.70816     
C           -33.3268    -16.19855   6.27581     
C           -32.95366   -17.56836   6.84347     
C           -32.58052   -18.93817   7.41112     
C           -36.60381   -4.73404    3.14759     
C           -36.89568   -4.22798    4.56059     
C           -37.18754   -3.72194    5.97359     
C           -37.47941   -3.21589    7.38659     
C           -37.77127   -2.70985    8.7996      
C           -38.06314   -2.20381    10.21259    
C           -38.35501   -1.69776    11.6256     
C           -38.64687   -1.19171    13.0386     
C           -41.82239   5.22218     -3.98594    
C           -42.20851   6.44463     -4.81924    
C           -42.59463   7.66707     -5.65254    
C           -42.98074   8.88951     -6.48583    
C           -43.36686   10.11195    -7.31913    
C           -43.75298   11.3344     -8.15243    
C           -44.1391    12.55684    -8.98573    
C           -44.52522   13.77928    -9.81903    
C           -44.91134   15.00173    -10.65233   
C           -45.29745   16.22417    -11.48562   
C           -40.9881    3.27564     -4.42255    
C           -40.53993   2.55155     -5.69246    
C           -40.09176   1.82745     -6.96237    
C           -39.64358   1.10336     -8.23227    
C           -39.19541   0.37926     -9.50218    
C           -38.74724   -0.34484    -10.77209   
C           -38.29907   -1.06893    -12.042     
C           -37.8509    -1.79303    -13.31191   
C           -18.97188   -0.52644    -0.13132    
C           -19.66467   0.60624     -0.59885    
C           -19.72118   -1.64457    0.29689     
C           -21.10042   -1.58895    0.22199     
C           -21.81539   -0.46116    -0.26683    
C           -21.05536   0.64846     -0.66579    
N           -21.99355   -2.5741     0.6298      
C           -23.30197   -2.15113    0.46593     
C           -23.24615   -0.75732    -0.13907    
O           -24.26668   -2.85081    0.74235     
C           -21.64047   -3.87027    1.16694     
C           -24.37619   -0.04353    -0.48373    
C           -25.79985   -0.25335    -0.20213    
C           -26.51979   0.78911     -0.84525    
N           -25.64009   1.62032     -1.53067    
C           -24.33167   1.20632     -1.35019    
C           -26.54529   -1.1563     0.57216     
O           -23.37674   1.77321     -1.86347    
C           -26.00553   2.7773      -2.31934    
H           -21.54853   1.5279      -1.04896    
H           -19.22429   -2.51594    0.70859     
H           -19.10352   1.468       -0.94778    
H           -28.40027   1.72031     -1.30932    
H           -26.04595   -1.96052    1.08919     
H           -28.4754    -1.71625    1.29808     
H           -21.84853   -3.50952    2.17425     
H           -21.4324    -4.23103    0.15963     
C           -21.26732   -5.24008    1.73459     
H           -25.68603   2.2611      -3.22464    
C           -26.39165   3.99974     -3.15264    
H           -26.32502   3.29349     -1.41404    
C           -27.92773   -1.02169    0.66959     
C           -27.89441   0.92624     -0.76977    
C           -28.62844   0.0         -0.0        
C           -15.04462   0.0         -0.0        
C           -15.30628   -1.3563     -0.00267    
S           -16.55094   0.89692     -0.03934    
H           -17.05769   -2.68994    -0.09355    
H           -14.52292   -2.10582    -0.01123    
C           -16.68395   -1.67303    -0.0468     
C           -17.5129    -0.56827    -0.08009    
C           -20.89418   -6.60988    2.30224     
C           -20.52103   -7.9797     2.8699      
C           -20.14789   -9.34951    3.43755     
C           -19.77475   -10.71931   4.00519     
C           -19.40161   -12.08912   4.57285     
C           -19.02846   -13.45893   5.14051     
C           -18.65532   -14.82875   5.70816     
C           -18.28218   -16.19855   6.27581     
C           -17.90904   -17.56836   6.84347     
C           -17.53589   -18.93817   7.41112     
C           -21.55919   -4.73404    3.14759     
C           -21.85106   -4.22798    4.56059     
C           -22.14292   -3.72194    5.97359     
C           -22.43478   -3.21589    7.38659     
C           -22.72665   -2.70985    8.7996      
C           -23.01852   -2.20381    10.21259    
C           -23.31038   -1.69776    11.6256     
C           -23.60225   -1.19171    13.0386     
C           -26.77777   5.22218     -3.98594    
C           -27.16388   6.44463     -4.81924    
C           -27.55      7.66707     -5.65254    
C           -27.93612   8.88951     -6.48583    
C           -28.32224   10.11195    -7.31913    
C           -28.70836   11.3344     -8.15243    
C           -29.09448   12.55684    -8.98573    
C           -29.48059   13.77928    -9.81903    
C           -29.86671   15.00173    -10.65233   
C           -30.25283   16.22417    -11.48562   
C           -25.94348   3.27564     -4.42255    
C           -25.4953    2.55155     -5.69246    
C           -25.04713   1.82745     -6.96237    
C           -24.59896   1.10336     -8.23227    
C           -24.15079   0.37926     -9.50218    
C           -23.70262   -0.34484    -10.77209   
C           -23.25444   -1.06893    -12.042     
C           -22.80627   -1.79303    -13.31191   
C           -3.92726    -0.52644    -0.13132    
C           -4.62005    0.60624     -0.59885    
C           -4.67656    -1.64457    0.29689     
C           -6.05579    -1.58895    0.22199     
C           -6.77077    -0.46116    -0.26683    
C           -6.01074    0.64846     -0.66579    
N           -6.94893    -2.5741     0.6298      
C           -8.25735    -2.15113    0.46593     
C           -8.20152    -0.75732    -0.13907    
O           -9.22205    -2.85081    0.74235     
C           -6.59584    -3.87027    1.16694     
C           -9.33156    -0.04353    -0.48373    
C           -10.75523   -0.25335    -0.20213    
C           -11.47517   0.78911     -0.84525    
N           -10.59546   1.62032     -1.53067    
C           -9.28704    1.20632     -1.35019    
C           -11.50067   -1.1563     0.57216     
O           -8.33211    1.77321     -1.86347    
C           -10.9609    2.7773      -2.31934    
H           -6.50391    1.5279      -1.04896    
H           -4.17967    -2.51594    0.70859     
H           -4.0589     1.468       -0.94778    
H           -13.35564   1.72031     -1.30932    
H           -11.00133   -1.96052    1.08919     
H           -13.43078   -1.71625    1.29808     
H           -6.8039     -3.50952    2.17425     
H           -6.38777    -4.23103    0.15963     
C           -6.22269    -5.24008    1.73459     
H           -10.64141   2.2611      -3.22464    
C           -11.34702   3.99974     -3.15264    
H           -11.2804    3.29349     -1.41404    
C           -12.8831    -1.02169    0.66959     
C           -12.84979   0.92624     -0.76977    
C           -13.58381   0.0         0.0         
C           0.0         0.0         0.0         
C           -0.26166    -1.3563     -0.00267    
S           -1.50632    0.89692     -0.03934    
H           -2.01306    -2.68994    -0.09355    
H           0.52171     -2.10582    -0.01123    
C           -1.63933    -1.67303    -0.0468     
C           -2.46827    -0.56827    -0.08009    
C           -5.84955    -6.60988    2.30224     
C           -5.47641    -7.9797     2.8699      
C           -5.10327    -9.34951    3.43755     
C           -4.73013    -10.71931   4.00519     
C           -4.35699    -12.08912   4.57285     
C           -3.98384    -13.45893   5.14051     
C           -3.61069    -14.82875   5.70816     
C           -3.23755    -16.19855   6.27581     
C           -2.86441    -17.56836   6.84347     
C           -2.49127    -18.93817   7.41112     
C           -6.51457    -4.73404    3.14759     
C           -6.80643    -4.22798    4.56059     
C           -7.09829    -3.72194    5.97359     
C           -7.39016    -3.21589    7.38659     
C           -7.68202    -2.70985    8.7996      
C           -7.97389    -2.20381    10.21259    
C           -8.26576    -1.69776    11.6256     
C           -8.55762    -1.19171    13.0386     
C           -11.73314   5.22218     -3.98594    
C           -12.11926   6.44463     -4.81924    
C           -12.50538   7.66707     -5.65254    
C           -12.8915    8.88951     -6.48583    
C           -13.27761   10.11195    -7.31913    
C           -13.66373   11.3344     -8.15243    
C           -14.04985   12.55684    -8.98573    
C           -14.43597   13.77928    -9.81903    
C           -14.82209   15.00173    -10.65233   
C           -15.20821   16.22417    -11.48562   
C           -10.89885   3.27564     -4.42255    
C           -10.45068   2.55155     -5.69246    
C           -10.00251   1.82745     -6.96237    
C           -9.55434    1.10336     -8.23227    
C           -9.10616    0.37926     -9.50218    
C           -8.65799    -0.34484    -10.77209   
C           -8.20982    -1.06893    -12.042     
C           -7.76165    -1.79303    -13.31191   
H           -150.07543  0.0         -0.0        
H           1.09        0.0         0.0         
