79

C           -3.92726    -0.52529    -0.13584    
C           -4.62005    0.61136     -0.59361    
C           -4.67656    -1.64706    0.28274     
C           -6.05579    -1.5908     0.20833     
C           -6.77077    -0.45885    -0.27078    
C           -6.01074    0.65416     -0.66019    
N           -6.94893    -2.57942    0.60765     
C           -8.25735    -2.15506    0.44742     
C           -8.20152    -0.7561     -0.14558    
O           -9.22205    -2.85709    0.71782     
C           -6.59584    -3.88016    1.13363     
C           -9.33156    -0.03937    -0.48409    
C           -10.75523   -0.25161    -0.2043     
C           -11.47517   0.79635     -0.83843    
N           -10.59546   1.63341     -1.51668    
C           -9.28704    1.21788     -1.33977    
C           -11.50067   -1.16118    0.5622      
O           -8.33211    1.78916     -1.84816    
C           -10.9609    2.79713     -2.29538    
H           -6.50391    1.53685     -1.03579    
H           -4.17967    -2.52194    0.68693     
H           -4.0589     1.47609     -0.93513    
H           -13.35564   1.7315      -1.29449    
H           -11.00133   -1.96981    1.0723      
H           -13.43078   -1.72735    1.28328     
H           -6.8039     -3.52807    2.144       
H           -6.38777    -4.23224    0.12326     
C           -6.22269    -5.2548     1.68948     
H           -10.64141   2.28873     -3.20508    
C           -11.34702   4.02669     -3.11814    
H           -11.2804    3.30553     -1.38568    
C           -12.8831    -1.02741    0.66078     
C           -12.84979   0.93282     -0.76178    
C           -13.58381   0.0         -0.0        
C           0.0         0.0         0.0         
C           -0.26166    -1.35623    -0.01433    
S           -1.50632    0.89722     -0.03163    
H           -2.01306    -2.68904    -0.11667    
H           0.52171     -2.10565    -0.02933    
C           -1.63933    -1.67256    -0.06118    
C           -2.46827    -0.56756    -0.08497    
C           -5.84955    -6.62943    2.24534     
C           -5.47641    -8.00407    2.8012      
C           -5.10327    -9.37871    3.35706     
C           -4.73013    -10.75334   3.91291     
C           -4.35699    -12.12798   4.46877     
C           -3.98384    -13.50262   5.02463     
C           -3.61069    -14.87726   5.58049     
C           -3.23755    -16.2519    6.13634     
C           -2.86441    -17.62653   6.6922      
C           -2.49127    -19.00117   7.24806     
C           -6.51457    -4.76092    3.10679     
C           -6.80643    -4.26703    4.52408     
C           -7.09829    -3.77315    5.94138     
C           -7.39016    -3.27927    7.35868     
C           -7.68202    -2.78538    8.77598     
C           -7.97389    -2.29151    10.19327    
C           -8.26576    -1.79763    11.61058    
C           -8.55762    -1.30374    13.02788    
C           -11.73314   5.25625     -3.9409     
C           -12.11926   6.48581     -4.76366    
C           -12.50538   7.71537     -5.58642    
C           -12.8915    8.94493     -6.40918    
C           -13.27761   10.17449    -7.23194    
C           -13.66373   11.40405    -8.05471    
C           -14.04985   12.63361    -8.87747    
C           -14.43597   13.86317    -9.70023    
C           -14.82209   15.09273    -10.52299   
C           -15.20821   16.3223     -11.34575   
C           -10.89885   3.31354     -4.39423    
C           -10.45068   2.60038     -5.67031    
C           -10.00251   1.88723     -6.9464     
C           -9.55434    1.17408     -8.22249    
C           -9.10616    0.46092     -9.49857    
C           -8.65799    -0.25223    -10.77466   
C           -8.20982    -0.96538    -12.05074   
C           -7.76165    -1.67854    -13.32683   
H           -14.67381   0.0         -0.0        
H           1.09        0.0         0.0         
