752

C           -137.5928   -0.73634    0.00469     
N           -138.17014  0.49381     -0.0029     
C           -138.35426  -1.91492    0.01201     
C           -139.48472  0.51828     -0.003      
C           -140.37296  -0.59663    0.00395     
C           -141.73761  -0.06405    0.00067     
C           -141.56002  1.44944     -0.0087     
N           -140.19943  1.70407     -0.01034    
C           -142.97505  -0.67258    0.00447     
C           -143.15277  -2.18633    0.01406     
N           -144.51328  -2.4408     0.01561     
C           -145.22749  -1.25451    0.00807     
C           -144.9637   1.11274     -0.00694    
C           -144.33983  -0.14012    0.00106     
C           -139.74929  -1.84941    0.01167     
O           -142.30869  -3.06952    0.01969     
O           -142.40405  2.33262     -0.01419    
C           -145.09767  -3.76839    0.024       
C           -139.61495  3.03165     -0.0186     
H           -140.19413  3.2811      -0.90766    
C           -138.99887  4.43101     -0.02731    
H           -139.03577  2.78219     0.87046     
H           -144.51844  -4.01775    0.91306     
C           -145.71368  -5.16778    0.03285     
H           -145.6769   -3.51903    -0.86505    
H           -146.85212  2.14145     -0.01359    
H           -144.37417  2.0161      -0.01264    
H           -140.33874  -2.7528     0.01729     
H           -137.86169  -2.87833    0.01795     
C           -146.35869  1.1784      -0.00744    
N           -146.54276  -1.22969    0.00784     
C           -147.11919  0.0         0.0         
C           -133.71603  0.0         0.0         
C           -133.88858  -1.36715    0.00845     
S           -135.27719  0.7965      -0.00486    
F           -135.56726  -3.07559    0.01907     
F           -132.89696  -2.27131    0.014       
C           -135.2399   -1.77416    0.01102     
C           -136.13889  -0.72969    0.00461     
C           -146.32969  -6.56717    0.0417      
C           -146.94569  -7.96657    0.05054     
C           -147.5617   -9.36596    0.0594      
C           -148.17771  -10.76535   0.06824     
C           -148.79371  -12.16474   0.07708     
C           -149.40973  -13.56413   0.08593     
C           -150.02573  -14.96352   0.09477     
C           -150.64173  -16.36292   0.10362     
C           -151.25774  -17.76231   0.11247     
C           -151.87375  -19.1617    0.12131     
C           -144.90116  -5.51756    1.27997     
C           -144.08865  -5.86734    2.5271      
C           -143.27613  -6.21713    3.77421     
C           -142.46361  -6.56691    5.02134     
C           -141.6511   -6.9167     6.26846     
C           -140.83858  -7.26648    7.51558     
C           -140.02607  -7.61626    8.7627      
C           -139.21355  -7.96604    10.00982    
C           -138.38279  5.83037     -0.03602    
C           -137.76671  7.22973     -0.04472    
C           -137.15062  8.62909     -0.05343    
C           -136.53454  10.02845    -0.06214    
C           -135.91846  11.42781    -0.07085    
C           -135.30238  12.82717    -0.07956    
C           -134.6863   14.22653    -0.08827    
C           -134.07022  15.62589    -0.09698    
C           -133.45414  17.02525    -0.10569    
C           -132.83806  18.42461    -0.11439    
C           -139.81131  4.78093     -1.27444    
C           -140.62375  5.13086     -2.52157    
C           -141.43619  5.48078     -3.7687     
C           -142.24864  5.8307      -5.01583    
C           -143.06108  6.18063     -6.26296    
C           -143.87352  6.53055     -7.51009    
C           -144.68596  6.88047     -8.75722    
C           -145.4984   7.2304      -10.00435   
C           -122.73546  -0.73635    -0.00371    
N           -123.3128   0.49381     0.00273     
C           -123.49693  -1.91494    -0.00983    
C           -124.62738  0.51828     0.00291     
C           -125.51562  -0.59664    -0.00285    
C           -126.88027  -0.06406    -6e-05      
C           -126.70268  1.44945     0.00782     
N           -125.34209  1.70408     0.00909     
C           -128.11772  -0.67259    -0.0032     
C           -128.29543  -2.18635    -0.01087    
N           -129.65594  -2.44082    -0.01222    
C           -130.37016  -1.25452    -0.00624    
C           -130.10636  1.11275     0.00574     
C           -129.48249  -0.14012    -0.00054    
C           -124.89195  -1.84943    -0.00942    
O           -127.45135  -3.06955    -0.01531    
O           -127.54672  2.33263     0.01241     
C           -130.24034  -3.76842    -0.01897    
C           -124.75761  3.03166     0.01597     
H           -125.33679  3.29124     -0.87019    
C           -124.14153  4.43103     0.02322     
H           -124.17844  2.77209     0.90213     
H           -129.66111  -4.0279     0.86719     
C           -130.85635  -5.16782    -0.02607    
H           -130.81956  -3.50894    -0.90512    
H           -131.99478  2.14146     0.01083     
H           -129.51684  2.01612     0.01035     
H           -125.4814   -2.75282    -0.0141     
H           -123.00436  -2.87834    -0.01487    
C           -131.50136  1.17841     0.006       
N           -131.68543  -1.2297     -0.00618    
C           -132.26186  0.0         0.0         
C           -118.85869  0.0         0.0         
C           -119.03124  -1.36716    -0.00714    
S           -120.41985  0.7965      0.00422     
F           -120.70992  -3.07561    -0.016      
F           -118.03963  -2.27133    -0.0119     
C           -120.38256  -1.77417    -0.00921    
C           -121.28156  -0.7297     -0.00371    
C           -131.47235  -6.56722    -0.03318    
C           -132.08835  -7.96662    -0.0403     
C           -132.70437  -9.36602    -0.0474     
C           -133.32037  -10.76543   -0.05451    
C           -133.93638  -12.16483   -0.06163    
C           -134.55239  -13.56423   -0.06874    
C           -135.16839  -14.96363   -0.07585    
C           -135.7844   -16.36304   -0.08296    
C           -136.40041  -17.76244   -0.09007    
C           -137.01641  -19.16184   -0.09718    
C           -130.04383  -5.5318     1.21698     
C           -129.23131  -5.89578    2.46003     
C           -128.41879  -6.25976    3.70308     
C           -127.60628  -6.62374    4.94613     
C           -126.79377  -6.98772    6.18919     
C           -125.98125  -7.3517     7.43223     
C           -125.16873  -7.71568    8.67529     
C           -124.35622  -8.07966    9.91834     
C           -123.52545  5.8304      0.03047     
C           -122.90937  7.22977     0.03771     
C           -122.29329  8.62914     0.04496     
C           -121.67721  10.02851    0.05221     
C           -121.06113  11.42787    0.05946     
C           -120.44504  12.82724    0.0667      
C           -119.82896  14.22661    0.07395     
C           -119.21288  15.62598    0.0812      
C           -118.5968   17.02535    0.08845     
C           -117.98072  18.42472    0.0957      
C           -124.95397  4.79515     -1.21984    
C           -125.76642  5.15927     -2.4629     
C           -126.57886  5.5234      -3.70596    
C           -127.3913   5.88752     -4.94902    
C           -128.20374  6.25164     -6.19208    
C           -129.01618  6.61576     -7.43513    
C           -129.82863  6.97988     -8.67819    
C           -130.64107  7.344       -9.92125    
C           -107.87813  -0.73635    -0.00371    
N           -108.45546  0.49381     0.00273     
C           -108.63959  -1.91494    -0.00983    
C           -109.77004  0.51828     0.00291     
C           -110.65829  -0.59664    -0.00285    
C           -112.02294  -0.06406    -6e-05      
C           -111.84535  1.44945     0.00782     
N           -110.48476  1.70408     0.00909     
C           -113.26038  -0.67259    -0.0032     
C           -113.4381   -2.18635    -0.01087    
N           -114.7986   -2.44082    -0.01222    
C           -115.51282  -1.25452    -0.00624    
C           -115.24903  1.11275     0.00574     
C           -114.62515  -0.14012    -0.00054    
C           -110.03461  -1.84943    -0.00942    
O           -112.59402  -3.06955    -0.01531    
O           -112.68938  2.33263     0.01241     
C           -115.383    -3.76842    -0.01897    
C           -109.90028  3.03166     0.01597     
H           -110.47945  3.29124     -0.87019    
C           -109.2842   4.43103     0.02322     
H           -109.3211   2.77209     0.90213     
H           -114.80377  -4.0279     0.86719     
C           -115.99901  -5.16782    -0.02607    
H           -115.96223  -3.50894    -0.90512    
H           -117.13745  2.14146     0.01083     
H           -114.6595   2.01612     0.01035     
H           -110.62406  -2.75282    -0.0141     
H           -108.14702  -2.87834    -0.01487    
C           -116.64402  1.17841     0.006       
N           -116.82809  -1.2297     -0.00618    
C           -117.40452  0.0         0.0         
C           -104.00135  0.0         0.0         
C           -104.17391  -1.36716    -0.00714    
S           -105.56252  0.7965      0.00422     
F           -105.85259  -3.07561    -0.016      
F           -103.18229  -2.27133    -0.0119     
C           -105.52522  -1.77417    -0.00921    
C           -106.42422  -0.7297     -0.00371    
C           -116.61501  -6.56722    -0.03318    
C           -117.23102  -7.96662    -0.0403     
C           -117.84703  -9.36602    -0.0474     
C           -118.46303  -10.76543   -0.05451    
C           -119.07904  -12.16483   -0.06163    
C           -119.69505  -13.56423   -0.06874    
C           -120.31106  -14.96363   -0.07585    
C           -120.92706  -16.36304   -0.08296    
C           -121.54307  -17.76244   -0.09007    
C           -122.15908  -19.16184   -0.09718    
C           -115.18649  -5.5318     1.21698     
C           -114.37398  -5.89578    2.46003     
C           -113.56145  -6.25976    3.70308     
C           -112.74894  -6.62374    4.94613     
C           -111.93643  -6.98772    6.18919     
C           -111.12391  -7.3517     7.43223     
C           -110.3114   -7.71568    8.67529     
C           -109.49888  -8.07966    9.91834     
C           -108.66812  5.8304      0.03047     
C           -108.05203  7.22977     0.03771     
C           -107.43595  8.62914     0.04496     
C           -106.81987  10.02851    0.05221     
C           -106.20379  11.42787    0.05946     
C           -105.58771  12.82724    0.0667      
C           -104.97163  14.22661    0.07395     
C           -104.35555  15.62598    0.0812      
C           -103.73946  17.02535    0.08845     
C           -103.12338  18.42472    0.0957      
C           -110.09664  4.79515     -1.21984    
C           -110.90908  5.15927     -2.4629     
C           -111.72152  5.5234      -3.70596    
C           -112.53396  5.88752     -4.94902    
C           -113.34641  6.25164     -6.19208    
C           -114.15885  6.61576     -7.43513    
C           -114.97129  6.97988     -8.67819    
C           -115.78373  7.344       -9.92125    
C           -93.02079   -0.73635    -0.00371    
N           -93.59813   0.49381     0.00273     
C           -93.78225   -1.91494    -0.00983    
C           -94.91271   0.51828     0.00291     
C           -95.80095   -0.59664    -0.00285    
C           -97.1656    -0.06406    -6e-05      
C           -96.98801   1.44945     0.00782     
N           -95.62742   1.70408     0.00909     
C           -98.40304   -0.67259    -0.0032     
C           -98.58076   -2.18635    -0.01087    
N           -99.94127   -2.44082    -0.01222    
C           -100.65548  -1.25452    -0.00624    
C           -100.39169  1.11275     0.00574     
C           -99.76782   -0.14012    -0.00054    
C           -95.17728   -1.84943    -0.00942    
O           -97.73668   -3.06955    -0.01531    
O           -97.83204   2.33263     0.01241     
C           -100.52566  -3.76842    -0.01897    
C           -95.04294   3.03166     0.01597     
H           -95.62212   3.29124     -0.87019    
C           -94.42686   4.43103     0.02322     
H           -94.46376   2.77209     0.90213     
H           -99.94643   -4.0279     0.86719     
C           -101.14167  -5.16782    -0.02607    
H           -101.10489  -3.50894    -0.90512    
H           -102.28011  2.14146     0.01083     
H           -99.80216   2.01612     0.01035     
H           -95.76673   -2.75282    -0.0141     
H           -93.28968   -2.87834    -0.01487    
C           -101.78669  1.17841     0.006       
N           -101.97076  -1.2297     -0.00618    
C           -102.54718  0.0         0.0         
C           -89.14402   0.0         0.0         
C           -89.31657   -1.36716    -0.00714    
S           -90.70518   0.7965      0.00422     
F           -90.99525   -3.07561    -0.016      
F           -88.32496   -2.27133    -0.0119     
C           -90.66789   -1.77417    -0.00921    
C           -91.56689   -0.7297     -0.00371    
C           -101.75768  -6.56722    -0.03318    
C           -102.37368  -7.96662    -0.0403     
C           -102.98969  -9.36602    -0.0474     
C           -103.6057   -10.76543   -0.05451    
C           -104.22171  -12.16483   -0.06163    
C           -104.83772  -13.56423   -0.06874    
C           -105.45372  -14.96363   -0.07585    
C           -106.06972  -16.36304   -0.08296    
C           -106.68574  -17.76244   -0.09007    
C           -107.30174  -19.16184   -0.09718    
C           -100.32915  -5.5318     1.21698     
C           -99.51664   -5.89578    2.46003     
C           -98.70412   -6.25976    3.70308     
C           -97.8916    -6.62374    4.94613     
C           -97.07909   -6.98772    6.18919     
C           -96.26657   -7.3517     7.43223     
C           -95.45406   -7.71568    8.67529     
C           -94.64155   -8.07966    9.91834     
C           -93.81078   5.8304      0.03047     
C           -93.1947    7.22977     0.03771     
C           -92.57862   8.62914     0.04496     
C           -91.96253   10.02851    0.05221     
C           -91.34645   11.42787    0.05946     
C           -90.73037   12.82724    0.0667      
C           -90.11429   14.22661    0.07395     
C           -89.49821   15.62598    0.0812      
C           -88.88213   17.02535    0.08845     
C           -88.26605   18.42472    0.0957      
C           -95.2393    4.79515     -1.21984    
C           -96.05174   5.15927     -2.4629     
C           -96.86419   5.5234      -3.70596    
C           -97.67663   5.88752     -4.94902    
C           -98.48907   6.25164     -6.19208    
C           -99.30151   6.61576     -7.43513    
C           -100.11395  6.97988     -8.67819    
C           -100.92639  7.344       -9.92125    
C           -78.16346   -0.73635    -0.00371    
N           -78.74079   0.49381     0.00273     
C           -78.92492   -1.91494    -0.00983    
C           -80.05537   0.51828     0.00291     
C           -80.94362   -0.59664    -0.00285    
C           -82.30826   -0.06406    -6e-05      
C           -82.13067   1.44945     0.00782     
N           -80.77008   1.70408     0.00909     
C           -83.54571   -0.67259    -0.0032     
C           -83.72342   -2.18635    -0.01087    
N           -85.08393   -2.44082    -0.01222    
C           -85.79815   -1.25452    -0.00624    
C           -85.53435   1.11275     0.00574     
C           -84.91048   -0.14012    -0.00054    
C           -80.31994   -1.84943    -0.00942    
O           -82.87935   -3.06955    -0.01531    
O           -82.97471   2.33263     0.01241     
C           -85.66833   -3.76842    -0.01897    
C           -80.18561   3.03166     0.01597     
H           -80.76478   3.29124     -0.87019    
C           -79.56952   4.43103     0.02322     
H           -79.60643   2.77209     0.90213     
H           -85.0891    -4.0279     0.86719     
C           -86.28434   -5.16782    -0.02607    
H           -86.24756   -3.50894    -0.90512    
H           -87.42278   2.14146     0.01083     
H           -84.94483   2.01612     0.01035     
H           -80.90939   -2.75282    -0.0141     
H           -78.43235   -2.87834    -0.01487    
C           -86.92935   1.17841     0.006       
N           -87.11342   -1.2297     -0.00618    
C           -87.68985   0.0         0.0         
C           -74.28668   0.0         0.0         
C           -74.45923   -1.36716    -0.00714    
S           -75.84784   0.7965      0.00422     
F           -76.13791   -3.07561    -0.016      
F           -73.46762   -2.27133    -0.0119     
C           -75.81055   -1.77417    -0.00921    
C           -76.70955   -0.7297     -0.00371    
C           -86.90034   -6.56722    -0.03318    
C           -87.51635   -7.96662    -0.0403     
C           -88.13236   -9.36602    -0.0474     
C           -88.74836   -10.76543   -0.05451    
C           -89.36437   -12.16483   -0.06163    
C           -89.98038   -13.56423   -0.06874    
C           -90.59638   -14.96363   -0.07585    
C           -91.21239   -16.36304   -0.08296    
C           -91.8284    -17.76244   -0.09007    
C           -92.4444    -19.16184   -0.09718    
C           -85.47182   -5.5318     1.21698     
C           -84.6593    -5.89578    2.46003     
C           -83.84678   -6.25976    3.70308     
C           -83.03427   -6.62374    4.94613     
C           -82.22176   -6.98772    6.18919     
C           -81.40924   -7.3517     7.43223     
C           -80.59672   -7.71568    8.67529     
C           -79.78421   -8.07966    9.91834     
C           -78.95344   5.8304      0.03047     
C           -78.33736   7.22977     0.03771     
C           -77.72128   8.62914     0.04496     
C           -77.1052    10.02851    0.05221     
C           -76.48912   11.42787    0.05946     
C           -75.87304   12.82724    0.0667      
C           -75.25695   14.22661    0.07395     
C           -74.64087   15.62598    0.0812      
C           -74.02479   17.02535    0.08845     
C           -73.40871   18.42472    0.0957      
C           -80.38197   4.79515     -1.21984    
C           -81.19441   5.15927     -2.4629     
C           -82.00685   5.5234      -3.70596    
C           -82.81929   5.88752     -4.94902    
C           -83.63173   6.25164     -6.19208    
C           -84.44417   6.61576     -7.43513    
C           -85.25662   6.97988     -8.67819    
C           -86.06906   7.344       -9.92125    
C           -63.30612   -0.73635    -0.00371    
N           -63.88346   0.49381     0.00273     
C           -64.06758   -1.91494    -0.00983    
C           -65.19804   0.51828     0.00291     
C           -66.08628   -0.59664    -0.00285    
C           -67.45093   -0.06406    -6e-05      
C           -67.27334   1.44945     0.00782     
N           -65.91275   1.70408     0.00909     
C           -68.68837   -0.67259    -0.0032     
C           -68.86609   -2.18635    -0.01087    
N           -70.2266    -2.44082    -0.01222    
C           -70.94081   -1.25452    -0.00624    
C           -70.67702   1.11275     0.00574     
C           -70.05314   -0.14012    -0.00054    
C           -65.4626    -1.84943    -0.00942    
O           -68.02201   -3.06955    -0.01531    
O           -68.11737   2.33263     0.01241     
C           -70.81099   -3.76842    -0.01897    
C           -65.32827   3.03166     0.01597     
H           -65.90745   3.29124     -0.87019    
C           -64.71219   4.43103     0.02322     
H           -64.74909   2.77209     0.90213     
H           -70.23176   -4.0279     0.86719     
C           -71.427     -5.16782    -0.02607    
H           -71.39022   -3.50894    -0.90512    
H           -72.56544   2.14146     0.01083     
H           -70.08749   2.01612     0.01035     
H           -66.05206   -2.75282    -0.0141     
H           -63.57501   -2.87834    -0.01487    
C           -72.07201   1.17841     0.006       
N           -72.25608   -1.2297     -0.00618    
C           -72.83251   0.0         0.0         
C           -59.42934   0.0         0.0         
C           -59.6019    -1.36716    -0.00714    
S           -60.99051   0.7965      0.00422     
F           -61.28058   -3.07561    -0.016      
F           -58.61028   -2.27133    -0.0119     
C           -60.95322   -1.77417    -0.00921    
C           -61.85221   -0.7297     -0.00371    
C           -72.04301   -6.56722    -0.03318    
C           -72.65901   -7.96662    -0.0403     
C           -73.27502   -9.36602    -0.0474     
C           -73.89102   -10.76543   -0.05451    
C           -74.50703   -12.16483   -0.06163    
C           -75.12304   -13.56423   -0.06874    
C           -75.73905   -14.96363   -0.07585    
C           -76.35505   -16.36304   -0.08296    
C           -76.97106   -17.76244   -0.09007    
C           -77.58707   -19.16184   -0.09718    
C           -70.61448   -5.5318     1.21698     
C           -69.80197   -5.89578    2.46003     
C           -68.98945   -6.25976    3.70308     
C           -68.17693   -6.62374    4.94613     
C           -67.36442   -6.98772    6.18919     
C           -66.5519    -7.3517     7.43223     
C           -65.73939   -7.71568    8.67529     
C           -64.92687   -8.07966    9.91834     
C           -64.09611   5.8304      0.03047     
C           -63.48003   7.22977     0.03771     
C           -62.86394   8.62914     0.04496     
C           -62.24786   10.02851    0.05221     
C           -61.63178   11.42787    0.05946     
C           -61.0157    12.82724    0.0667      
C           -60.39962   14.22661    0.07395     
C           -59.78354   15.62598    0.0812      
C           -59.16746   17.02535    0.08845     
C           -58.55137   18.42472    0.0957      
C           -65.52463   4.79515     -1.21984    
C           -66.33707   5.15927     -2.4629     
C           -67.14951   5.5234      -3.70596    
C           -67.96196   5.88752     -4.94902    
C           -68.7744    6.25164     -6.19208    
C           -69.58684   6.61576     -7.43513    
C           -70.39928   6.97988     -8.67819    
C           -71.21172   7.344       -9.92125    
C           -48.44878   -0.73635    -0.00371    
N           -49.02612   0.49381     0.00273     
C           -49.21025   -1.91494    -0.00983    
C           -50.3407    0.51828     0.00291     
C           -51.22894   -0.59664    -0.00285    
C           -52.59359   -0.06406    -6e-05      
C           -52.416     1.44945     0.00782     
N           -51.05541   1.70408     0.00909     
C           -53.83103   -0.67259    -0.0032     
C           -54.00875   -2.18635    -0.01087    
N           -55.36926   -2.44082    -0.01222    
C           -56.08347   -1.25452    -0.00624    
C           -55.81968   1.11275     0.00574     
C           -55.19581   -0.14012    -0.00054    
C           -50.60527   -1.84943    -0.00942    
O           -53.16467   -3.06955    -0.01531    
O           -53.26004   2.33263     0.01241     
C           -55.95365   -3.76842    -0.01897    
C           -50.47093   3.03166     0.01597     
H           -51.05011   3.29124     -0.87019    
C           -49.85485   4.43103     0.02322     
H           -49.89176   2.77209     0.90213     
H           -55.37443   -4.0279     0.86719     
C           -56.56967   -5.16782    -0.02607    
H           -56.53288   -3.50894    -0.90512    
H           -57.7081    2.14146     0.01083     
H           -55.23015   2.01612     0.01035     
H           -51.19472   -2.75282    -0.0141     
H           -48.71767   -2.87834    -0.01487    
C           -57.21468   1.17841     0.006       
N           -57.39875   -1.2297     -0.00618    
C           -57.97518   0.0         0.0         
C           -44.57201   0.0         0.0         
C           -44.74456   -1.36716    -0.00714    
S           -46.13317   0.7965      0.00422     
F           -46.42324   -3.07561    -0.016      
F           -43.75295   -2.27133    -0.0119     
C           -46.09588   -1.77417    -0.00921    
C           -46.99488   -0.7297     -0.00371    
C           -57.18567   -6.56722    -0.03318    
C           -57.80167   -7.96662    -0.0403     
C           -58.41768   -9.36602    -0.0474     
C           -59.03369   -10.76543   -0.05451    
C           -59.6497    -12.16483   -0.06163    
C           -60.26571   -13.56423   -0.06874    
C           -60.88171   -14.96363   -0.07585    
C           -61.49772   -16.36304   -0.08296    
C           -62.11373   -17.76244   -0.09007    
C           -62.72973   -19.16184   -0.09718    
C           -55.75714   -5.5318     1.21698     
C           -54.94463   -5.89578    2.46003     
C           -54.13211   -6.25976    3.70308     
C           -53.3196    -6.62374    4.94613     
C           -52.50709   -6.98772    6.18919     
C           -51.69456   -7.3517     7.43223     
C           -50.88205   -7.71568    8.67529     
C           -50.06954   -8.07966    9.91834     
C           -49.23877   5.8304      0.03047     
C           -48.62269   7.22977     0.03771     
C           -48.00661   8.62914     0.04496     
C           -47.39053   10.02851    0.05221     
C           -46.77445   11.42787    0.05946     
C           -46.15836   12.82724    0.0667      
C           -45.54228   14.22661    0.07395     
C           -44.9262    15.62598    0.0812      
C           -44.31012   17.02535    0.08845     
C           -43.69404   18.42472    0.0957      
C           -50.66729   4.79515     -1.21984    
C           -51.47974   5.15927     -2.4629     
C           -52.29218   5.5234      -3.70596    
C           -53.10462   5.88752     -4.94902    
C           -53.91706   6.25164     -6.19208    
C           -54.7295    6.61576     -7.43513    
C           -55.54194   6.97988     -8.67819    
C           -56.35439   7.344       -9.92125    
C           -33.59145   -0.73635    -0.00371    
N           -34.16878   0.49381     0.00273     
C           -34.35291   -1.91494    -0.00983    
C           -35.48336   0.51828     0.00291     
C           -36.37161   -0.59664    -0.00285    
C           -37.73626   -0.06406    -6e-05      
C           -37.55867   1.44945     0.00782     
N           -36.19808   1.70408     0.00909     
C           -38.9737    -0.67259    -0.0032     
C           -39.15141   -2.18635    -0.01087    
N           -40.51192   -2.44082    -0.01222    
C           -41.22614   -1.25452    -0.00624    
C           -40.96234   1.11275     0.00574     
C           -40.33847   -0.14012    -0.00054    
C           -35.74793   -1.84943    -0.00942    
O           -38.30734   -3.06955    -0.01531    
O           -38.4027    2.33263     0.01241     
C           -41.09632   -3.76842    -0.01897    
C           -35.6136    3.03166     0.01597     
H           -36.19277   3.29124     -0.87019    
C           -34.99752   4.43103     0.02322     
H           -35.03442   2.77209     0.90213     
H           -40.51709   -4.0279     0.86719     
C           -41.71233   -5.16782    -0.02607    
H           -41.67555   -3.50894    -0.90512    
H           -42.85077   2.14146     0.01083     
H           -40.37282   2.01612     0.01035     
H           -36.33738   -2.75282    -0.0141     
H           -33.86034   -2.87834    -0.01487    
C           -42.35734   1.17841     0.006       
N           -42.54141   -1.2297     -0.00618    
C           -43.11784   0.0         0.0         
C           -29.71467   0.0         0.0         
C           -29.88722   -1.36716    -0.00714    
S           -31.27583   0.7965      0.00422     
F           -31.5659    -3.07561    -0.016      
F           -28.89561   -2.27133    -0.0119     
C           -31.23854   -1.77417    -0.00921    
C           -32.13754   -0.7297     -0.00371    
C           -42.32833   -6.56722    -0.03318    
C           -42.94434   -7.96662    -0.0403     
C           -43.56035   -9.36602    -0.0474     
C           -44.17635   -10.76543   -0.05451    
C           -44.79236   -12.16483   -0.06163    
C           -45.40837   -13.56423   -0.06874    
C           -46.02438   -14.96363   -0.07585    
C           -46.64038   -16.36304   -0.08296    
C           -47.25639   -17.76244   -0.09007    
C           -47.87239   -19.16184   -0.09718    
C           -40.89981   -5.5318     1.21698     
C           -40.08729   -5.89578    2.46003     
C           -39.27477   -6.25976    3.70308     
C           -38.46226   -6.62374    4.94613     
C           -37.64975   -6.98772    6.18919     
C           -36.83723   -7.3517     7.43223     
C           -36.02471   -7.71568    8.67529     
C           -35.2122    -8.07966    9.91834     
C           -34.38143   5.8304      0.03047     
C           -33.76535   7.22977     0.03771     
C           -33.14927   8.62914     0.04496     
C           -32.53319   10.02851    0.05221     
C           -31.91711   11.42787    0.05946     
C           -31.30103   12.82724    0.0667      
C           -30.68495   14.22661    0.07395     
C           -30.06886   15.62598    0.0812      
C           -29.45278   17.02535    0.08845     
C           -28.8367    18.42472    0.0957      
C           -35.80996   4.79515     -1.21984    
C           -36.6224    5.15927     -2.4629     
C           -37.43484   5.5234      -3.70596    
C           -38.24728   5.88752     -4.94902    
C           -39.05972   6.25164     -6.19208    
C           -39.87217   6.61576     -7.43513    
C           -40.68461   6.97988     -8.67819    
C           -41.49705   7.344       -9.92125    
C           -18.73411   -0.73635    -0.00371    
N           -19.31145   0.49381     0.00273     
C           -19.49557   -1.91494    -0.00983    
C           -20.62603   0.51828     0.00291     
C           -21.51427   -0.59664    -0.00285    
C           -22.87892   -0.06406    -6e-05      
C           -22.70133   1.44945     0.00782     
N           -21.34074   1.70408     0.00909     
C           -24.11636   -0.67259    -0.0032     
C           -24.29408   -2.18635    -0.01087    
N           -25.65459   -2.44082    -0.01222    
C           -26.3688    -1.25452    -0.00624    
C           -26.10501   1.11275     0.00574     
C           -25.48114   -0.14012    -0.00054    
C           -20.8906    -1.84943    -0.00942    
O           -23.45      -3.06955    -0.01531    
O           -23.54536   2.33263     0.01241     
C           -26.23898   -3.76842    -0.01897    
C           -20.75626   3.03166     0.01597     
H           -21.33544   3.29124     -0.87019    
C           -20.14018   4.43103     0.02322     
H           -20.17708   2.77209     0.90213     
H           -25.65975   -4.0279     0.86719     
C           -26.85499   -5.16782    -0.02607    
H           -26.81821   -3.50894    -0.90512    
H           -27.99343   2.14146     0.01083     
H           -25.51548   2.01612     0.01035     
H           -21.48005   -2.75282    -0.0141     
H           -19.003     -2.87834    -0.01487    
C           -27.50001   1.17841     0.006       
N           -27.68408   -1.2297     -0.00618    
C           -28.2605    0.0         0.0         
C           -14.85734   0.0         0.0         
C           -15.02989   -1.36716    -0.00714    
S           -16.4185    0.7965      0.00422     
F           -16.70857   -3.07561    -0.016      
F           -14.03828   -2.27133    -0.0119     
C           -16.38121   -1.77417    -0.00921    
C           -17.2802    -0.7297     -0.00371    
C           -27.471     -6.56722    -0.03318    
C           -28.087     -7.96662    -0.0403     
C           -28.70301   -9.36602    -0.0474     
C           -29.31902   -10.76543   -0.05451    
C           -29.93502   -12.16483   -0.06163    
C           -30.55104   -13.56423   -0.06874    
C           -31.16704   -14.96363   -0.07585    
C           -31.78304   -16.36304   -0.08296    
C           -32.39905   -17.76244   -0.09007    
C           -33.01506   -19.16184   -0.09718    
C           -26.04247   -5.5318     1.21698     
C           -25.22996   -5.89578    2.46003     
C           -24.41744   -6.25976    3.70308     
C           -23.60492   -6.62374    4.94613     
C           -22.79241   -6.98772    6.18919     
C           -21.97989   -7.3517     7.43223     
C           -21.16738   -7.71568    8.67529     
C           -20.35487   -8.07966    9.91834     
C           -19.5241    5.8304      0.03047     
C           -18.90802   7.22977     0.03771     
C           -18.29194   8.62914     0.04496     
C           -17.67585   10.02851    0.05221     
C           -17.05977   11.42787    0.05946     
C           -16.44369   12.82724    0.0667      
C           -15.82761   14.22661    0.07395     
C           -15.21153   15.62598    0.0812      
C           -14.59545   17.02535    0.08845     
C           -13.97937   18.42472    0.0957      
C           -20.95262   4.79515     -1.21984    
C           -21.76506   5.15927     -2.4629     
C           -22.5775    5.5234      -3.70596    
C           -23.38995   5.88752     -4.94902    
C           -24.20239   6.25164     -6.19208    
C           -25.01483   6.61576     -7.43513    
C           -25.82727   6.97988     -8.67819    
C           -26.63971   7.344       -9.92125    
C           -3.87677    -0.73635    -0.00371    
N           -4.45411    0.49381     0.00273     
C           -4.63824    -1.91494    -0.00983    
C           -5.76869    0.51828     0.00291     
C           -6.65693    -0.59664    -0.00285    
C           -8.02158    -0.06406    -6e-05      
C           -7.84399    1.44945     0.00782     
N           -6.4834     1.70408     0.00909     
C           -9.25903    -0.67259    -0.0032     
C           -9.43674    -2.18635    -0.01087    
N           -10.79725   -2.44082    -0.01222    
C           -11.51147   -1.25452    -0.00624    
C           -11.24767   1.11275     0.00574     
C           -10.6238    -0.14012    -0.00054    
C           -6.03326    -1.84943    -0.00942    
O           -8.59266    -3.06955    -0.01531    
O           -8.68803    2.33263     0.01241     
C           -11.38165   -3.76842    -0.01897    
C           -5.89892    3.03166     0.01597     
H           -6.4781     3.29124     -0.87019    
C           -5.28284    4.43103     0.02322     
H           -5.31975    2.77209     0.90213     
H           -10.80242   -4.0279     0.86719     
C           -11.99766   -5.16782    -0.02607    
H           -11.96087   -3.50894    -0.90512    
H           -13.1361    2.14146     0.01083     
H           -10.65815   2.01612     0.01035     
H           -6.62271    -2.75282    -0.0141     
H           -4.14567    -2.87834    -0.01487    
C           -12.64267   1.17841     0.006       
N           -12.82674   -1.2297     -0.00618    
C           -13.40317   0.0         0.0         
C           0.0         0.0         0.0         
C           -0.17255    -1.36716    -0.00714    
S           -1.56116    0.7965      0.00422     
F           -1.85123    -3.07561    -0.016      
F           0.81906     -2.27133    -0.0119     
C           -1.52387    -1.77417    -0.00921    
C           -2.42287    -0.7297     -0.00371    
C           -12.61366   -6.56722    -0.03318    
C           -13.22966   -7.96662    -0.0403     
C           -13.84568   -9.36602    -0.0474     
C           -14.46168   -10.76543   -0.05451    
C           -15.07769   -12.16483   -0.06163    
C           -15.6937    -13.56423   -0.06874    
C           -16.3097    -14.96363   -0.07585    
C           -16.92571   -16.36304   -0.08296    
C           -17.54172   -17.76244   -0.09007    
C           -18.15772   -19.16184   -0.09718    
C           -11.18514   -5.5318     1.21698     
C           -10.37262   -5.89578    2.46003     
C           -9.5601     -6.25976    3.70308     
C           -8.74759    -6.62374    4.94613     
C           -7.93508    -6.98772    6.18919     
C           -7.12256    -7.3517     7.43223     
C           -6.31004    -7.71568    8.67529     
C           -5.49753    -8.07966    9.91834     
C           -4.66676    5.8304      0.03047     
C           -4.05068    7.22977     0.03771     
C           -3.4346     8.62914     0.04496     
C           -2.81852    10.02851    0.05221     
C           -2.20244    11.42787    0.05946     
C           -1.58636    12.82724    0.0667      
C           -0.97027    14.22661    0.07395     
C           -0.35419    15.62598    0.0812      
C           0.26189     17.02535    0.08845     
C           0.87797     18.42472    0.0957      
C           -6.09528    4.79515     -1.21984    
C           -6.90773    5.15927     -2.4629     
C           -7.72017    5.5234      -3.70596    
C           -8.53261    5.88752     -4.94902    
C           -9.34505    6.25164     -6.19208    
C           -10.15749   6.61576     -7.43513    
C           -10.96994   6.97988     -8.67819    
C           -11.78238   7.344       -9.92125    
H           -148.20919  0.0         0.0         
H           1.09        0.0         0.0         
