83

C           -4.43789    -0.01506    -0.0        
S           -5.34642    -1.55475    -0.00237    
C           -5.2996     1.07501     0.00169     
C           -6.65633    0.70144     0.00111     
C           -6.85826    -0.6907     -0.00102    
S           -8.15036    1.62051     0.00253     
C           -9.05732    0.11535     0.00022     
C           -8.22151    -1.00963    -0.00151    
C           -10.40689   -0.33068    -0.00048    
C           -10.32611   -1.83961    -0.00276    
N           -8.97551    -2.17928    -0.00329    
C           -8.4824     -3.54257    -0.00545    
O           -11.24985   -2.64205    -0.00404    
H           -8.84389    -3.67172    -1.02562    
H           -8.12091    -3.41343    1.01471     
C           -7.96234    -4.98041    -0.00772    
C           -11.61522   0.33397     0.00051     
C           -11.6979    1.84055     0.00279     
N           -13.05005   2.17837     0.00334     
C           -13.80254   1.00802     0.00154     
C           -12.96603   -0.11546    -0.00018    
C           -15.16496   0.68283     0.00104     
C           -15.36522   -0.70858    -0.0011     
S           -13.86874   -1.62115    -0.00249    
C           -13.54356   3.54117     0.00547     
H           -13.18245   3.67034     1.02577     
H           -13.90466   3.412       -1.01483    
C           -14.06416   4.97881     0.00772     
O           -10.77626   2.64599     0.00408     
H           -4.93766    2.09298     0.00325     
H           -17.08862   -2.10438    -0.00321    
C           -16.72517   -1.08606    -0.00166    
S           -16.6833    1.53977     0.00238     
C           -17.58289   -0.0        0.0         
C           0.0         0.0         0.0         
C           -0.75702    1.22656     0.00191     
C           -0.77859    -1.15074    -0.00178    
N           -0.21955    2.4453      0.0038      
N           -2.721      2.47296     0.00386     
S           -1.45743    3.52347     0.00547     
F           -2.77189    -2.33818    -0.00361    
H           -0.32925    -2.13652    -0.00331    
C           -2.18177    -1.12037    -0.00173    
C           -2.21676    1.23713     0.00194     
C           -2.98897    0.01301     3e-05       
C           -7.44228    -6.41824    -0.00998    
C           -6.92221    -7.85607    -0.01225    
C           -6.40214    -9.29391    -0.01453    
C           -5.88209    -10.73175   -0.01679    
C           -5.36202    -12.16958   -0.01906    
C           -4.84195    -13.60741   -0.02134    
C           -4.3219     -15.04525   -0.0236     
C           -3.80183    -16.48308   -0.02587    
C           -3.28176    -17.92092   -0.02814    
C           -2.7617     -19.35875   -0.03041    
C           -7.45525    -4.79926    1.42332     
C           -6.94817    -4.6181     2.85437     
C           -6.44109    -4.43694    4.28542     
C           -5.934      -4.2558     5.71646     
C           -5.42691    -4.07464    7.1475      
C           -4.91983    -3.89348    8.57855     
C           -4.41275    -3.71233    10.0096     
C           -3.90566    -3.53118    11.44064    
C           -14.58477   6.41645     0.00996     
C           -15.10538   7.85409     0.01221     
C           -15.62598   9.29173     0.01446     
C           -16.14659   10.72936    0.01671     
C           -16.6672    12.167      0.01895     
C           -17.18781   13.60464    0.0212      
C           -17.70841   15.04228    0.02345     
C           -18.22902   16.47992    0.0257      
C           -18.74963   17.91756    0.02794     
C           -19.27023   19.3552     0.03019     
C           -14.5707    4.79762     -1.42352    
C           -15.07725   4.61642     -2.85475    
C           -15.58379   4.43523     -4.28598    
C           -16.09033   4.25403     -5.71721    
C           -16.59687   4.07284     -7.14845    
C           -17.10341   3.89165     -8.57968    
C           -17.60995   3.71045     -10.01091   
C           -18.11649   3.52926     -11.44214   
H           -18.67289   -0.0        0.0         
H           1.09        0.0         0.0         
