119

C           -4.32348    0.76348     -0.17748    
C           -5.09439    1.81534     -0.63283    
S           -5.35649    -0.58159    0.38949     
C           -12.71268   1.15387     -0.43794    
C           -12.86641   -0.14365    0.11944     
C           -11.75531   -0.92539    0.46786     
C           -10.49184   -0.39474    0.25261     
C           -10.33802   0.90301     -0.30469    
C           -11.44911   1.68462     -0.6532     
C           -9.12755    -1.0362     0.5436      
C           -8.19517    0.06896     0.07719     
C           -8.91364    1.14988     -0.39514    
C           -14.07694   1.79579     -0.72823    
C           -15.00942   0.69049     -0.26229    
C           -14.2909    -0.38988    0.21141     
C           -16.40171   0.45954     -0.18005    
C           -16.72589   -0.79061    0.35938     
S           -15.28584   -1.7126     0.77275     
C           -6.80269    0.29672     -0.01085    
C           -6.47822    1.54995     -0.54304    
S           -7.91811    2.47341     -0.95416    
C           -14.25373   2.08735     -2.23554    
C           -14.27772   3.08895     0.09392     
C           -8.92599    -2.32993    -0.27729    
C           -8.95119    -1.32642    2.05132     
H           -11.31836   2.67668     -1.07871    
H           -11.88608   -1.91715    0.89408     
H           -4.66331    2.73639     -0.99497    
H           -18.54483   -1.94609    0.88037     
H           -9.44686    -1.87612    -1.1204     
H           -8.40512    -2.78375    0.56583     
C           -8.72657    -3.60995    -1.08946    
C           -8.77671    -1.61354    3.54294     
H           -8.79147    -0.26431    2.23708     
H           -9.11091    -2.38853    1.86555     
H           -14.78613   3.00758     -1.99511    
H           -13.72132   1.16711     -2.47599    
C           -14.42863   2.37581     -3.72686    
H           -14.44878   2.49259     0.99013     
C           -14.47636   4.36831     0.90731     
H           -14.10666   3.68529     -0.80229    
S           -17.84786   1.3438      -0.56821    
C           -18.11      -1.04818    0.46561     
C           -18.8798    -0.0        0.0         
C           0.0         0.0         0.0         
C           -0.50735    1.31521     -0.00024    
C           -0.99761    -1.00737    -0.06686    
C           0.22189     2.62327     0.0551      
N           -0.7576     3.6155      0.00844     
C           -2.04384    3.09037     -0.07345    
C           -0.47832    5.03956     0.03457     
O           -3.03892    3.79223     -0.13636    
O           1.41426     2.86293     0.13341     
H           -3.03303    -1.56923    -0.19201    
H           -0.69289    -2.04882    -0.05068    
H           -0.97037    5.50699     0.89219     
H           -0.84291    5.51586     -0.88024    
H           0.60284     5.15911     0.112       
C           -2.34666    -0.73105    -0.12783    
C           -1.89102    1.59922     -0.07724    
C           -2.8716     0.58778     -0.13214    
C           -8.60223    -1.90067    5.03457     
C           -8.42776    -2.1878     6.5262      
C           -8.25328    -2.47493    8.01783     
C           -8.0788     -2.76205    9.50945     
C           -7.90432    -3.04918    11.00108    
C           -7.72985    -3.33631    12.49271    
C           -7.55537    -3.62344    13.98434    
C           -7.38089    -3.91057    15.47597    
C           -7.20642    -4.19769    16.9676     
C           -7.03194    -4.48481    18.45923    
C           -6.85746    -4.77194    19.95086    
C           -6.68298    -5.05907    21.44249    
C           -6.5085     -5.3462     22.93412    
C           -6.33403    -5.63332    24.42574    
C           -14.67499   5.64768     1.72069     
C           -14.87363   6.92704     2.53408     
C           -15.07227   8.20641     3.34747     
C           -15.27091   9.48578     4.16086     
C           -15.46955   10.76515    4.97425     
C           -15.66819   12.04452    5.78764     
C           -15.86683   13.32389    6.60103     
C           -16.06547   14.60326    7.41441     
C           -16.26411   15.88263    8.2278      
C           -16.46275   17.162      9.04119     
C           -16.66139   18.44136    9.85458     
C           -16.86003   19.72073    10.66797    
C           -17.05867   21.0001     11.48135    
C           -17.2573    22.27947    12.29473    
C           -14.60355   2.66426     -5.21819    
C           -14.77845   2.95273     -6.70951    
C           -14.95336   3.24118     -8.20083    
C           -15.12827   3.52965     -9.69215    
C           -15.30318   3.8181      -11.18347   
C           -15.47808   4.10657     -12.67479   
C           -15.65299   4.39502     -14.16611   
C           -15.8279    4.68349     -15.65743   
C           -16.00281   4.97194     -17.14875   
C           -16.17771   5.26041     -18.64007   
C           -16.35263   5.54886     -20.13139   
C           -16.52754   5.83733     -21.62272   
C           -16.70245   6.12579     -23.11404   
C           -16.87735   6.41424     -24.60537   
C           -8.52715    -4.88996    -1.90164    
C           -8.32773    -6.16998    -2.71382    
C           -8.12831    -7.44999    -3.526      
C           -7.92889    -8.73001    -4.33818    
C           -7.72947    -10.01003   -5.15036    
C           -7.53005    -11.29004   -5.96254    
C           -7.33063    -12.57006   -6.77471    
C           -7.13121    -13.85007   -7.58689    
C           -6.93179    -15.13009   -8.39907    
C           -6.73237    -16.4101    -9.21125    
C           -6.53295    -17.69012   -10.02343   
C           -6.33353    -18.97013   -10.83561   
C           -6.13411    -20.25015   -11.64779   
C           -5.93469    -21.53016   -12.45996   
H           -19.9698    -0.0        0.0         
H           1.09        0.0         0.0         
