67

C           -7.69092    -1.15913    -0.04586    
C           -8.45146    -2.34251    -0.05343    
N           -8.28051    0.0664      -0.03881    
C           -15.28675   -1.78       -0.04241    
C           -14.44676   -0.6427     -0.0389     
C           -15.0715    0.62127     -0.03152    
C           -16.44972   0.62757     -0.02805    
C           -17.28971   -0.51036    -0.03107    
C           -16.66507   -1.77399    -0.03882    
O           -14.56604   -2.95608    -0.05004    
C           -13.22783   -2.64325    -0.05173    
C           -13.07511   -1.14204    -0.04408    
O           -17.17054   1.80223     -0.02078    
C           -18.51038   1.48851     -0.0185     
C           -18.66182   -0.01032    -0.02453    
O           -19.33102   2.37346     -0.0127     
O           -12.40615   -3.52691    -0.05875    
C           -19.89803   -0.63359    -0.02264    
C           -11.83954   -0.51992    -0.0422     
C           -10.4776    -1.03926    -0.04568    
C           -9.59498    0.08241     -0.03915    
N           -10.31709   1.26238     -0.03257    
C           -11.67625   0.99575     -0.03418    
C           -21.25785   -0.11728    -0.0143     
C           -22.1405    -1.23891    -0.01469    
N           -21.41759   -2.41944    -0.02326    
C           -20.05981   -2.15143    -0.02887    
C           -9.84275    -2.29048    -0.05325    
C           -21.89556   1.13471     -0.00607    
C           -21.99035   -3.75253    -0.02642    
C           -9.74409    2.59544     -0.0254     
O           -12.52902   1.8691      -0.02981    
O           -19.20523   -3.023      -0.03728    
H           -14.50641   1.5392      -0.02869    
H           -17.23014   -2.69194    -0.04179    
H           -10.42304   -3.19971    -0.05886    
H           -21.31576   2.04432     -0.00527    
H           -23.77909   2.15016     0.00774     
H           -7.95858    -3.30827    -0.05938    
H           -22.60734   -3.90336    0.86428     
H           -22.61539   -3.89577    -0.91274    
H           -21.16241   -4.4621     -0.0332     
H           -9.12333    2.73781     0.86409     
H           -9.12313    2.74725     -0.91319    
H           -10.5721    3.30491     -0.02175    
N           -23.45434   -1.22521    -0.00816    
C           -23.28482   1.18512     0.0011      
C           -24.04705   0.0         -0.0        
C           0.0         0.0         0.0         
S           -1.33968    1.16307     -0.00276    
C           -0.43365    -1.31793    -0.01541    
C           -1.83889    -1.39694    -0.03068    
C           -2.48682    -0.1416     -0.02026    
N           -2.78137    -2.41153    -0.06293    
C           -4.0244     -1.80099    -0.04625    
C           -3.86931    -0.39755    -0.03018    
C           -2.51857    -3.83516    0.01997     
H           -3.31639    -4.3823     -0.48901    
H           -2.45623    -4.1812     1.05936     
H           -1.57666    -4.0615     -0.48669    
H           -5.69023    -3.2644     -0.05449    
H           0.23918     -2.16703    -0.01209    
C           -5.36583    -2.23077    -0.05076    
S           -5.40844    0.40968     -0.03224    
C           -6.24174    -1.15588    -0.04501    
H           -25.13705   0.0         -0.0        
H           1.09        0.0         0.0         
