652

C           -237.13891  -1.15913    -0.04586    
C           -237.89945  -2.34251    -0.05343    
N           -237.7285   0.0664      -0.03881    
C           -244.73473  -1.78       -0.04241    
C           -243.89475  -0.6427     -0.0389     
C           -244.51949  0.62127     -0.03152    
C           -245.8977   0.62757     -0.02805    
C           -246.7377   -0.51036    -0.03107    
C           -246.11306  -1.77399    -0.03882    
O           -244.01403  -2.95608    -0.05004    
C           -242.67582  -2.64325    -0.05173    
C           -242.52309  -1.14204    -0.04408    
O           -246.61853  1.80223     -0.02078    
C           -247.95836  1.48851     -0.0185     
C           -248.10981  -0.01032    -0.02453    
O           -248.77901  2.37346     -0.0127     
O           -241.85413  -3.52691    -0.05875    
C           -249.34602  -0.63359    -0.02264    
C           -241.28753  -0.51992    -0.0422     
C           -239.92558  -1.03926    -0.04568    
C           -239.04297  0.08241     -0.03915    
N           -239.76507  1.26238     -0.03257    
C           -241.12424  0.99575     -0.03418    
C           -250.70583  -0.11728    -0.0143     
C           -251.58848  -1.23891    -0.01469    
N           -250.86558  -2.41944    -0.02326    
C           -249.5078   -2.15143    -0.02887    
C           -239.29074  -2.29048    -0.05325    
C           -251.34355  1.13471     -0.00607    
C           -251.43833  -3.75253    -0.02642    
C           -239.19208  2.59544     -0.0254     
O           -241.977    1.8691      -0.02981    
O           -248.65322  -3.023      -0.03728    
H           -243.9544   1.5392      -0.02869    
H           -246.67813  -2.69194    -0.04179    
H           -239.87103  -3.19971    -0.05886    
H           -250.76375  2.04432     -0.00527    
H           -253.22707  2.15016     0.00774     
H           -237.40656  -3.30827    -0.05938    
H           -252.05533  -3.90336    0.86428     
H           -252.06338  -3.89577    -0.91274    
H           -250.6104   -4.4621     -0.0332     
H           -238.57132  2.73781     0.86409     
H           -238.57111  2.74725     -0.91319    
H           -240.02009  3.30491     -0.02175    
N           -252.90233  -1.22521    -0.00816    
C           -252.73281  1.18512     0.0011      
C           -253.49504  0.0         -0.0        
C           -229.44799  0.0         -0.0        
S           -230.78767  1.16307     -0.00276    
C           -229.88164  -1.31793    -0.01541    
C           -231.28688  -1.39694    -0.03068    
C           -231.93481  -0.1416     -0.02026    
N           -232.22936  -2.41153    -0.06293    
C           -233.47239  -1.80099    -0.04625    
C           -233.31729  -0.39755    -0.03018    
C           -231.96655  -3.83516    0.01997     
H           -232.76438  -4.3823     -0.48901    
H           -231.90422  -4.1812     1.05936     
H           -231.02465  -4.0615     -0.48669    
H           -235.13821  -3.2644     -0.05449    
H           -229.20881  -2.16703    -0.01209    
C           -234.81382  -2.23077    -0.05076    
S           -234.85643  0.40968     -0.03224    
C           -235.68972  -1.15588    -0.04501    
C           -211.64469  -1.15923    -0.04305    
C           -212.40523  -2.34263    -0.04777    
N           -212.23428  0.0663      -0.03897    
C           -219.24051  -1.7801     -0.03811    
C           -218.40053  -0.64279    -0.03735    
C           -219.02527  0.62119     -0.03302    
C           -220.40348  0.6275      -0.02957    
C           -221.24348  -0.51043    -0.02984    
C           -220.61884  -1.77408    -0.03453    
O           -218.51981  -2.95619    -0.04289    
C           -217.1816   -2.64337    -0.04534    
C           -217.02887  -1.14215    -0.04132    
O           -221.12431  1.80217     -0.02514    
C           -222.46414  1.48846     -0.0221     
C           -222.61558  -0.01038    -0.02451    
O           -223.28479  2.37342     -0.01844    
O           -216.35991  -3.52704    -0.05022    
C           -223.8518   -0.63364    -0.02111    
C           -215.79331  -0.52002    -0.04095    
C           -214.43136  -1.03937    -0.04317    
C           -213.54875  0.08231     -0.03935    
N           -214.27085  1.2623      -0.03562    
C           -215.63002  0.99567     -0.03659    
C           -225.21161  -0.11731    -0.01401    
C           -226.09426  -1.23895    -0.01169    
N           -225.37136  -2.41949    -0.01741    
C           -224.01357  -2.15149    -0.02367    
C           -213.79652  -2.2906     -0.04771    
C           -225.84933  1.13469     -0.00881    
C           -225.94411  -3.75259    -0.01734    
C           -213.69786  2.59537     -0.03168    
O           -216.48278  1.86902     -0.03433    
O           -223.159    -3.02308    -0.02997    
H           -218.46018  1.53913     -0.03242    
H           -221.1839   -2.69203    -0.03529    
H           -214.37681  -3.19984    -0.05113    
H           -225.26953  2.0443      -0.01022    
H           -227.73285  2.15018     0.00254     
H           -211.91234  -3.3084     -0.05138    
H           -226.56111  -3.90126    0.87372     
H           -226.56916  -3.89797    -0.90332    
H           -225.11618  -4.46217    -0.02241    
H           -213.0771   2.73989     0.85747     
H           -213.07689  2.74503     -0.91983    
H           -214.52587  3.30485     -0.02974    
N           -227.40811  -1.22523    -0.00519    
C           -227.23859  1.18512     -0.00176    
C           -228.00082  0.0         -0.0        
C           -203.95377  0.0         -0.0        
S           -205.29345  1.16306     -0.00557    
C           -204.38742  -1.31796    -0.01222    
C           -205.79266  -1.39701    -0.0273     
C           -206.44058  -0.14165    -0.01992    
N           -206.73514  -2.41168    -0.0571     
C           -207.97817  -1.80109    -0.0419     
C           -207.82307  -0.39762    -0.02922    
C           -206.47233  -3.8351     0.02924     
H           -207.27016  -4.38347    -0.47841    
H           -206.41     -4.17863    1.06947     
H           -205.53043  -4.06266    -0.47687    
H           -209.64399  -3.26452    -0.0466     
H           -203.71459  -2.16705    -0.00685    
C           -209.31959  -2.23088    -0.04537    
S           -209.36221  0.4096      -0.03323    
C           -210.1955   -1.15599    -0.04221    
C           -186.15046  1.15923     0.04305     
C           -186.91101  2.34263     0.04777     
N           -186.74006  -0.0663     0.03897     
C           -193.74629  1.7801      0.03811     
C           -192.9063   0.64279     0.03735     
C           -193.53105  -0.62119    0.03302     
C           -194.90926  -0.6275     0.02957     
C           -195.74926  0.51043     0.02984     
C           -195.12462  1.77408     0.03453     
O           -193.02559  2.95619     0.04289     
C           -191.68737  2.64337     0.04534     
C           -191.53465  1.14215     0.04132     
O           -195.63009  -1.80217    0.02514     
C           -196.96992  -1.48846    0.0221      
C           -197.12136  0.01038     0.02451     
O           -197.79056  -2.37342    0.01844     
O           -190.86569  3.52704     0.05022     
C           -198.35757  0.63364     0.02111     
C           -190.29909  0.52002     0.04095     
C           -188.93714  1.03937     0.04317     
C           -188.05453  -0.08231    0.03935     
N           -188.77663  -1.2623     0.03562     
C           -190.1358   -0.99567    0.03659     
C           -199.71739  0.11731     0.01401     
C           -200.60004  1.23895     0.01169     
N           -199.87713  2.41949     0.01741     
C           -198.51935  2.15149     0.02367     
C           -188.3023   2.2906      0.04771     
C           -200.3551   -1.13469    0.00881     
C           -200.44989  3.75259     0.01734     
C           -188.20364  -2.59537    0.03168     
O           -190.98856  -1.86902    0.03433     
O           -197.66478  3.02308     0.02997     
H           -192.96596  -1.53913    0.03242     
H           -195.68968  2.69203     0.03529     
H           -188.88259  3.19984     0.05113     
H           -199.77531  -2.0443     0.01022     
H           -202.23863  -2.15018    -0.00254    
H           -186.41812  3.3084      0.05138     
H           -201.06689  3.90126     -0.87372    
H           -201.07494  3.89797     0.90332     
H           -199.62196  4.46217     0.02241     
H           -187.58288  -2.73989    -0.85747    
H           -187.58267  -2.74503    0.91983     
H           -189.03165  -3.30485    0.02974     
N           -201.91389  1.22523     0.00519     
C           -201.74437  -1.18512    0.00176     
C           -202.5066   0.0         -0.0        
C           -178.45955  0.0         -0.0        
S           -179.79923  -1.16306    0.00557     
C           -178.8932   1.31796     0.01222     
C           -180.29844  1.39701     0.0273      
C           -180.94636  0.14165     0.01992     
N           -181.24092  2.41168     0.0571      
C           -182.48394  1.80109     0.0419      
C           -182.32885  0.39762     0.02922     
C           -180.97811  3.8351      -0.02924    
H           -181.77594  4.38347     0.47841     
H           -180.91578  4.17863     -1.06947    
H           -180.03621  4.06266     0.47687     
H           -184.14977  3.26452     0.0466      
H           -178.22037  2.16705     0.00685     
C           -183.82537  2.23088     0.04537     
S           -183.86799  -0.4096     0.03323     
C           -184.70128  1.15599     0.04221     
C           -160.65624  -1.15923    -0.04305    
C           -161.41679  -2.34263    -0.04777    
N           -161.24583  0.0663      -0.03897    
C           -168.25207  -1.7801     -0.03811    
C           -167.41208  -0.64279    -0.03735    
C           -168.03683  0.62119     -0.03302    
C           -169.41504  0.6275      -0.02957    
C           -170.25503  -0.51043    -0.02984    
C           -169.6304   -1.77408    -0.03453    
O           -167.53137  -2.95619    -0.04289    
C           -166.19315  -2.64337    -0.04534    
C           -166.04043  -1.14215    -0.04132    
O           -170.13587  1.80217     -0.02514    
C           -171.4757   1.48846     -0.0221     
C           -171.62714  -0.01038    -0.02451    
O           -172.29634  2.37342     -0.01844    
O           -165.37147  -3.52704    -0.05022    
C           -172.86335  -0.63364    -0.02111    
C           -164.80487  -0.52002    -0.04095    
C           -163.44292  -1.03937    -0.04317    
C           -162.56031  0.08231     -0.03935    
N           -163.28241  1.2623      -0.03562    
C           -164.64158  0.99567     -0.03659    
C           -174.22317  -0.11731    -0.01401    
C           -175.10582  -1.23895    -0.01169    
N           -174.38291  -2.41949    -0.01741    
C           -173.02513  -2.15149    -0.02367    
C           -162.80807  -2.2906     -0.04771    
C           -174.86088  1.13469     -0.00881    
C           -174.95567  -3.75259    -0.01734    
C           -162.70942  2.59537     -0.03168    
O           -165.49434  1.86902     -0.03433    
O           -172.17056  -3.02308    -0.02997    
H           -167.47174  1.53913     -0.03242    
H           -170.19546  -2.69203    -0.03529    
H           -163.38837  -3.19984    -0.05113    
H           -174.28109  2.0443      -0.01022    
H           -176.74441  2.15018     0.00254     
H           -160.9239   -3.3084     -0.05138    
H           -175.57267  -3.90126    0.87372     
H           -175.58072  -3.89797    -0.90332    
H           -174.12774  -4.46217    -0.02241    
H           -162.08866  2.73989     0.85747     
H           -162.08845  2.74503     -0.91983    
H           -163.53742  3.30485     -0.02974    
N           -176.41967  -1.22523    -0.00519    
C           -176.25015  1.18512     -0.00176    
C           -177.01238  0.0         -0.0        
C           -152.96532  0.0         -0.0        
S           -154.30501  1.16306     -0.00557    
C           -153.39898  -1.31796    -0.01222    
C           -154.80422  -1.39701    -0.0273     
C           -155.45214  -0.14165    -0.01992    
N           -155.7467   -2.41168    -0.0571     
C           -156.98972  -1.80109    -0.0419     
C           -156.83463  -0.39762    -0.02922    
C           -155.48389  -3.8351     0.02924     
H           -156.28172  -4.38347    -0.47841    
H           -155.42156  -4.17863    1.06947     
H           -154.54199  -4.06266    -0.47687    
H           -158.65555  -3.26452    -0.0466     
H           -152.72615  -2.16705    -0.00685    
C           -158.33115  -2.23088    -0.04537    
S           -158.37377  0.4096      -0.03323    
C           -159.20706  -1.15599    -0.04221    
C           -135.16202  1.15923     0.04305     
C           -135.92257  2.34263     0.04777     
N           -135.75161  -0.0663     0.03897     
C           -142.75785  1.7801      0.03811     
C           -141.91786  0.64279     0.03735     
C           -142.54261  -0.62119    0.03302     
C           -143.92082  -0.6275     0.02957     
C           -144.76081  0.51043     0.02984     
C           -144.13618  1.77408     0.03453     
O           -142.03715  2.95619     0.04289     
C           -140.69893  2.64337     0.04534     
C           -140.54621  1.14215     0.04132     
O           -144.64165  -1.80217    0.02514     
C           -145.98148  -1.48846    0.0221      
C           -146.13292  0.01038     0.02451     
O           -146.80212  -2.37342    0.01844     
O           -139.87725  3.52704     0.05022     
C           -147.36913  0.63364     0.02111     
C           -139.31065  0.52002     0.04095     
C           -137.9487   1.03937     0.04317     
C           -137.06609  -0.08231    0.03935     
N           -137.78819  -1.2623     0.03562     
C           -139.14736  -0.99567    0.03659     
C           -148.72895  0.11731     0.01401     
C           -149.6116   1.23895     0.01169     
N           -148.88869  2.41949     0.01741     
C           -147.53091  2.15149     0.02367     
C           -137.31385  2.2906      0.04771     
C           -149.36666  -1.13469    0.00881     
C           -149.46145  3.75259     0.01734     
C           -137.21519  -2.59537    0.03168     
O           -140.00012  -1.86902    0.03433     
O           -146.67634  3.02308     0.02997     
H           -141.97752  -1.53913    0.03242     
H           -144.70124  2.69203     0.03529     
H           -137.89415  3.19984     0.05113     
H           -148.78686  -2.0443     0.01022     
H           -151.25019  -2.15018    -0.00254    
H           -135.42968  3.3084      0.05138     
H           -150.07845  3.90126     -0.87372    
H           -150.08649  3.89797     0.90332     
H           -148.63351  4.46217     0.02241     
H           -136.59444  -2.73989    -0.85747    
H           -136.59423  -2.74503    0.91983     
H           -138.0432   -3.30485    0.02974     
N           -150.92544  1.22523     0.00519     
C           -150.75593  -1.18512    0.00176     
C           -151.51816  0.0         -0.0        
C           -127.4711   0.0         -0.0        
S           -128.81079  -1.16306    0.00557     
C           -127.90476  1.31796     0.01222     
C           -129.31     1.39701     0.0273      
C           -129.95792  0.14165     0.01992     
N           -130.25248  2.41168     0.0571      
C           -131.4955   1.80109     0.0419      
C           -131.34041  0.39762     0.02922     
C           -129.98967  3.8351      -0.02924    
H           -130.78749  4.38347     0.47841     
H           -129.92734  4.17863     -1.06947    
H           -129.04777  4.06266     0.47687     
H           -133.16133  3.26452     0.0466      
H           -127.23192  2.16705     0.00685     
C           -132.83693  2.23088     0.04537     
S           -132.87955  -0.4096     0.03323     
C           -133.71284  1.15599     0.04221     
C           -109.6678   -1.15923    -0.04305    
C           -110.42835  -2.34263    -0.04777    
N           -110.25739  0.0663      -0.03897    
C           -117.26363  -1.7801     -0.03811    
C           -116.42364  -0.64279    -0.03735    
C           -117.04839  0.62119     -0.03302    
C           -118.4266   0.6275      -0.02957    
C           -119.26659  -0.51043    -0.02984    
C           -118.64195  -1.77408    -0.03453    
O           -116.54293  -2.95619    -0.04289    
C           -115.20471  -2.64337    -0.04534    
C           -115.05199  -1.14215    -0.04132    
O           -119.14743  1.80217     -0.02514    
C           -120.48726  1.48846     -0.0221     
C           -120.6387   -0.01038    -0.02451    
O           -121.3079   2.37342     -0.01844    
O           -114.38303  -3.52704    -0.05022    
C           -121.87491  -0.63364    -0.02111    
C           -113.81643  -0.52002    -0.04095    
C           -112.45448  -1.03937    -0.04317    
C           -111.57187  0.08231     -0.03935    
N           -112.29397  1.2623      -0.03562    
C           -113.65314  0.99567     -0.03659    
C           -123.23473  -0.11731    -0.01401    
C           -124.11738  -1.23895    -0.01169    
N           -123.39447  -2.41949    -0.01741    
C           -122.03669  -2.15149    -0.02367    
C           -111.81963  -2.2906     -0.04771    
C           -123.87244  1.13469     -0.00881    
C           -123.96723  -3.75259    -0.01734    
C           -111.72097  2.59537     -0.03168    
O           -114.5059   1.86902     -0.03433    
O           -121.18212  -3.02308    -0.02997    
H           -116.4833   1.53913     -0.03242    
H           -119.20702  -2.69203    -0.03529    
H           -112.39992  -3.19984    -0.05113    
H           -123.29264  2.0443      -0.01022    
H           -125.75597  2.15018     0.00254     
H           -109.93546  -3.3084     -0.05138    
H           -124.58423  -3.90126    0.87372     
H           -124.59227  -3.89797    -0.90332    
H           -123.13929  -4.46217    -0.02241    
H           -111.10022  2.73989     0.85747     
H           -111.10001  2.74503     -0.91983    
H           -112.54898  3.30485     -0.02974    
N           -125.43122  -1.22523    -0.00519    
C           -125.2617   1.18512     -0.00176    
C           -126.02394  0.0         -0.0        
C           -101.97688  0.0         -0.0        
S           -103.31656  1.16306     -0.00557    
C           -102.41053  -1.31796    -0.01222    
C           -103.81577  -1.39701    -0.0273     
C           -104.4637   -0.14165    -0.01992    
N           -104.75826  -2.41168    -0.0571     
C           -106.00128  -1.80109    -0.0419     
C           -105.84619  -0.39762    -0.02922    
C           -104.49545  -3.8351     0.02924     
H           -105.29327  -4.38347    -0.47841    
H           -104.43312  -4.17863    1.06947     
H           -103.55355  -4.06266    -0.47687    
H           -107.66711  -3.26452    -0.0466     
H           -101.7377   -2.16705    -0.00685    
C           -107.34271  -2.23088    -0.04537    
S           -107.38533  0.4096      -0.03323    
C           -108.21862  -1.15599    -0.04221    
C           -84.17358   1.15923     0.04305     
C           -84.93412   2.34263     0.04777     
N           -84.76317   -0.0663     0.03897     
C           -91.76941   1.7801      0.03811     
C           -90.92942   0.64279     0.03735     
C           -91.55417   -0.62119    0.03302     
C           -92.93238   -0.6275     0.02957     
C           -93.77237   0.51043     0.02984     
C           -93.14773   1.77408     0.03453     
O           -91.04871   2.95619     0.04289     
C           -89.71049   2.64337     0.04534     
C           -89.55777   1.14215     0.04132     
O           -93.65321   -1.80217    0.02514     
C           -94.99304   -1.48846    0.0221      
C           -95.14448   0.01038     0.02451     
O           -95.81368   -2.37342    0.01844     
O           -88.88881   3.52704     0.05022     
C           -96.38069   0.63364     0.02111     
C           -88.32221   0.52002     0.04095     
C           -86.96026   1.03937     0.04317     
C           -86.07765   -0.08231    0.03935     
N           -86.79975   -1.2623     0.03562     
C           -88.15892   -0.99567    0.03659     
C           -97.74051   0.11731     0.01401     
C           -98.62316   1.23895     0.01169     
N           -97.90025   2.41949     0.01741     
C           -96.54247   2.15149     0.02367     
C           -86.32541   2.2906      0.04771     
C           -98.37822   -1.13469    0.00881     
C           -98.47301   3.75259     0.01734     
C           -86.22675   -2.59537    0.03168     
O           -89.01168   -1.86902    0.03433     
O           -95.68789   3.02308     0.02997     
H           -90.98908   -1.53913    0.03242     
H           -93.7128    2.69203     0.03529     
H           -86.9057    3.19984     0.05113     
H           -97.79842   -2.0443     0.01022     
H           -100.26175  -2.15018    -0.00254    
H           -84.44124   3.3084      0.05138     
H           -99.09001   3.90126     -0.87372    
H           -99.09805   3.89797     0.90332     
H           -97.64507   4.46217     0.02241     
H           -85.606     -2.73989    -0.85747    
H           -85.60579   -2.74503    0.91983     
H           -87.05476   -3.30485    0.02974     
N           -99.937     1.22523     0.00519     
C           -99.76748   -1.18512    0.00176     
C           -100.52972  0.0         -0.0        
C           -76.48266   0.0         -0.0        
S           -77.82234   -1.16306    0.00557     
C           -76.91631   1.31796     0.01222     
C           -78.32155   1.39701     0.0273      
C           -78.96948   0.14165     0.01992     
N           -79.26404   2.41168     0.0571      
C           -80.50706   1.80109     0.0419      
C           -80.35197   0.39762     0.02922     
C           -79.00123   3.8351      -0.02924    
H           -79.79905   4.38347     0.47841     
H           -78.9389    4.17863     -1.06947    
H           -78.05933   4.06266     0.47687     
H           -82.17289   3.26452     0.0466      
H           -76.24348   2.16705     0.00685     
C           -81.84849   2.23088     0.04537     
S           -81.89111   -0.4096     0.03323     
C           -82.7244    1.15599     0.04221     
C           -58.67936   -1.15923    -0.04305    
C           -59.4399    -2.34263    -0.04777    
N           -59.26895   0.0663      -0.03897    
C           -66.27519   -1.7801     -0.03811    
C           -65.4352    -0.64279    -0.03735    
C           -66.05995   0.62119     -0.03302    
C           -67.43816   0.6275      -0.02957    
C           -68.27815   -0.51043    -0.02984    
C           -67.65351   -1.77408    -0.03453    
O           -65.55449   -2.95619    -0.04289    
C           -64.21627   -2.64337    -0.04534    
C           -64.06355   -1.14215    -0.04132    
O           -68.15899   1.80217     -0.02514    
C           -69.49882   1.48846     -0.0221     
C           -69.65026   -0.01038    -0.02451    
O           -70.31946   2.37342     -0.01844    
O           -63.39459   -3.52704    -0.05022    
C           -70.88647   -0.63364    -0.02111    
C           -62.82799   -0.52002    -0.04095    
C           -61.46604   -1.03937    -0.04317    
C           -60.58342   0.08231     -0.03935    
N           -61.30553   1.2623      -0.03562    
C           -62.6647    0.99567     -0.03659    
C           -72.24629   -0.11731    -0.01401    
C           -73.12894   -1.23895    -0.01169    
N           -72.40603   -2.41949    -0.01741    
C           -71.04825   -2.15149    -0.02367    
C           -60.83119   -2.2906     -0.04771    
C           -72.884     1.13469     -0.00881    
C           -72.97879   -3.75259    -0.01734    
C           -60.73253   2.59537     -0.03168    
O           -63.51746   1.86902     -0.03433    
O           -70.19367   -3.02308    -0.02997    
H           -65.49485   1.53913     -0.03242    
H           -68.21858   -2.69203    -0.03529    
H           -61.41148   -3.19984    -0.05113    
H           -72.3042    2.0443      -0.01022    
H           -74.76753   2.15018     0.00254     
H           -58.94702   -3.3084     -0.05138    
H           -73.59579   -3.90126    0.87372     
H           -73.60383   -3.89797    -0.90332    
H           -72.15085   -4.46217    -0.02241    
H           -60.11178   2.73989     0.85747     
H           -60.11157   2.74503     -0.91983    
H           -61.56054   3.30485     -0.02974    
N           -74.44278   -1.22523    -0.00519    
C           -74.27326   1.18512     -0.00176    
C           -75.0355    0.0         -0.0        
C           -50.98844   0.0         -0.0        
S           -52.32812   1.16306     -0.00557    
C           -51.42209   -1.31796    -0.01222    
C           -52.82733   -1.39701    -0.0273     
C           -53.47526   -0.14165    -0.01992    
N           -53.76982   -2.41168    -0.0571     
C           -55.01284   -1.80109    -0.0419     
C           -54.85775   -0.39762    -0.02922    
C           -53.50701   -3.8351     0.02924     
H           -54.30483   -4.38347    -0.47841    
H           -53.44467   -4.17863    1.06947     
H           -52.56511   -4.06266    -0.47687    
H           -56.67867   -3.26452    -0.0466     
H           -50.74926   -2.16705    -0.00685    
C           -56.35427   -2.23088    -0.04537    
S           -56.39689   0.4096      -0.03323    
C           -57.23018   -1.15599    -0.04221    
C           -33.18514   1.15923     0.04305     
C           -33.94568   2.34263     0.04777     
N           -33.77473   -0.0663     0.03897     
C           -40.78097   1.7801      0.03811     
C           -39.94098   0.64279     0.03735     
C           -40.56573   -0.62119    0.03302     
C           -41.94394   -0.6275     0.02957     
C           -42.78393   0.51043     0.02984     
C           -42.15929   1.77408     0.03453     
O           -40.06027   2.95619     0.04289     
C           -38.72205   2.64337     0.04534     
C           -38.56933   1.14215     0.04132     
O           -42.66477   -1.80217    0.02514     
C           -44.0046    -1.48846    0.0221      
C           -44.15604   0.01038     0.02451     
O           -44.82524   -2.37342    0.01844     
O           -37.90037   3.52704     0.05022     
C           -45.39225   0.63364     0.02111     
C           -37.33377   0.52002     0.04095     
C           -35.97182   1.03937     0.04317     
C           -35.0892    -0.08231    0.03935     
N           -35.81131   -1.2623     0.03562     
C           -37.17047   -0.99567    0.03659     
C           -46.75207   0.11731     0.01401     
C           -47.63472   1.23895     0.01169     
N           -46.91181   2.41949     0.01741     
C           -45.55403   2.15149     0.02367     
C           -35.33697   2.2906      0.04771     
C           -47.38978   -1.13469    0.00881     
C           -47.48457   3.75259     0.01734     
C           -35.23831   -2.59537    0.03168     
O           -38.02324   -1.86902    0.03433     
O           -44.69945   3.02308     0.02997     
H           -40.00063   -1.53913    0.03242     
H           -42.72436   2.69203     0.03529     
H           -35.91726   3.19984     0.05113     
H           -46.80998   -2.0443     0.01022     
H           -49.27331   -2.15018    -0.00254    
H           -33.4528    3.3084      0.05138     
H           -48.10156   3.90126     -0.87372    
H           -48.10961   3.89797     0.90332     
H           -46.65663   4.46217     0.02241     
H           -34.61756   -2.73989    -0.85747    
H           -34.61735   -2.74503    0.91983     
H           -36.06632   -3.30485    0.02974     
N           -48.94856   1.22523     0.00519     
C           -48.77904   -1.18512    0.00176     
C           -49.54127   0.0         -0.0        
C           -25.49422   0.0         0.0         
S           -26.8339    -1.16306    0.00557     
C           -25.92787   1.31796     0.01222     
C           -27.33311   1.39701     0.0273      
C           -27.98104   0.14165     0.01992     
N           -28.2756    2.41168     0.0571      
C           -29.51862   1.80109     0.0419      
C           -29.36353   0.39762     0.02922     
C           -28.01279   3.8351      -0.02924    
H           -28.81061   4.38347     0.47841     
H           -27.95045   4.17863     -1.06947    
H           -27.07089   4.06266     0.47687     
H           -31.18445   3.26452     0.0466      
H           -25.25504   2.16705     0.00685     
C           -30.86005   2.23088     0.04537     
S           -30.90267   -0.4096     0.03323     
C           -31.73596   1.15599     0.04221     
C           -7.69092    -1.15923    -0.04305    
C           -8.45146    -2.34263    -0.04777    
N           -8.28051    0.0663      -0.03897    
C           -15.28675   -1.7801     -0.03811    
C           -14.44676   -0.64279    -0.03735    
C           -15.0715    0.62119     -0.03302    
C           -16.44972   0.6275      -0.02957    
C           -17.28971   -0.51043    -0.02984    
C           -16.66507   -1.77408    -0.03453    
O           -14.56604   -2.95619    -0.04289    
C           -13.22783   -2.64337    -0.04534    
C           -13.07511   -1.14215    -0.04132    
O           -17.17054   1.80217     -0.02514    
C           -18.51038   1.48846     -0.0221     
C           -18.66182   -0.01038    -0.02451    
O           -19.33102   2.37342     -0.01844    
O           -12.40615   -3.52704    -0.05022    
C           -19.89803   -0.63364    -0.02111    
C           -11.83954   -0.52002    -0.04095    
C           -10.4776    -1.03937    -0.04317    
C           -9.59498    0.08231     -0.03935    
N           -10.31709   1.2623      -0.03562    
C           -11.67625   0.99567     -0.03659    
C           -21.25785   -0.11731    -0.01401    
C           -22.1405    -1.23895    -0.01169    
N           -21.41759   -2.41949    -0.01741    
C           -20.05981   -2.15149    -0.02367    
C           -9.84275    -2.2906     -0.04771    
C           -21.89556   1.13469     -0.00881    
C           -21.99035   -3.75259    -0.01734    
C           -9.74409    2.59537     -0.03168    
O           -12.52902   1.86902     -0.03433    
O           -19.20523   -3.02308    -0.02997    
H           -14.50641   1.53913     -0.03242    
H           -17.23014   -2.69203    -0.03529    
H           -10.42304   -3.19984    -0.05113    
H           -21.31576   2.0443      -0.01022    
H           -23.77909   2.15018     0.00254     
H           -7.95858    -3.3084     -0.05138    
H           -22.60734   -3.90126    0.87372     
H           -22.61539   -3.89797    -0.90332    
H           -21.16241   -4.46217    -0.02241    
H           -9.12333    2.73989     0.85747     
H           -9.12313    2.74503     -0.91983    
H           -10.5721    3.30485     -0.02974    
N           -23.45434   -1.22523    -0.00519    
C           -23.28482   1.18512     -0.00176    
C           -24.04705   0.0         0.0         
C           0.0         0.0         0.0         
S           -1.33968    1.16306     -0.00557    
C           -0.43365    -1.31796    -0.01222    
C           -1.83889    -1.39701    -0.0273     
C           -2.48682    -0.14165    -0.01992    
N           -2.78137    -2.41168    -0.0571     
C           -4.0244     -1.80109    -0.0419     
C           -3.86931    -0.39762    -0.02922    
C           -2.51857    -3.8351     0.02924     
H           -3.31639    -4.38347    -0.47841    
H           -2.45623    -4.17863    1.06947     
H           -1.57666    -4.06266    -0.47687    
H           -5.69023    -3.26452    -0.0466     
H           0.23918     -2.16705    -0.00685    
C           -5.36583    -2.23088    -0.04537    
S           -5.40844    0.4096      -0.03323    
C           -6.24174    -1.15599    -0.04221    
H           -254.58504  0.0         -0.0        
H           1.09        0.0         0.0         
