392

C           46.02       34.15       41.32       
C           45.0        34.51       40.46       
N           45.46       33.47       42.38       
C           44.07       33.39       42.3        
C           44.67       35.12       39.17       
O           45.24       35.58       38.26       
O           43.38       32.81       43.07       
C           42.48       35.3        37.88       
C           45.99       32.88       43.6        
H           45.93977    33.59038    44.42519    
H           47.01       32.54       43.51       
H           45.4        31.96       43.83       
H           42.45       36.4        37.88       
H           41.4417     34.97777    37.95877    
H           42.98       34.7        37.05       
N           43.26       35.01       39.1        
C           43.79       34.03       41.05       
C           42.73       34.45       40.3        
C           50.02       34.31       41.14       
C           49.51       35.07       40.16       
S           48.74       33.57       42.07       
H           47.51       35.81       39.49       
H           50.16       35.59       39.44       
C           48.06       35.23       40.23       
C           47.45       34.45       41.2        
C           53.91       34.36       41.52       
C           53.41       33.13       41.97       
S           52.57       35.34       40.95       
H           51.48       32.03       42.13       
H           54.08       32.34       42.21       
C           52.03       32.94       41.85       
C           51.4        34.08       41.39       
C           56.93       36.73       41.7        
C           57.41       35.64       41.11       
S           55.32       36.57       42.24       
H           56.56       33.73       40.42       
H           58.33       35.6        40.62       
C           56.41       34.69       40.9        
C           55.2        35.01       41.47       
C           61.16       38.97       42.12       
C           59.75       39.05       42.15       
N           61.57       37.68       41.72       
C           60.37       36.9        41.62       
C           58.64       39.92       42.35       
O           58.64       41.08       42.7        
O           60.43       35.64       41.54       
C           56.15       39.83       42.11       
C           62.7        37.24       40.91       
H           62.42881    36.92708    39.90172    
H           63.24       36.47       41.49       
H           63.46       38.01       40.87       
H           55.45       39.44       42.87       
H           55.69841    39.93421    41.12344    
H           56.31       40.85       42.35       
N           57.45       39.16       42.12       
C           59.19       37.79       41.84       
C           57.78       37.86       41.9        
C           63.6        41.09       44.15       
C           62.62       41.96       43.7        
S           63.6        39.6        43.37       
H           60.84       41.66       42.45       
H           62.56       43.01       43.84       
C           61.72       41.21       42.89       
C           62.08       39.96       42.59       
C           66.64       41.36       46.51       
C           65.67       42.08       47.02       
S           66.27       40.75       44.94       
H           63.68       42.83       46.43       
H           65.73       42.55       48.0        
C           64.55       42.28       46.14       
C           64.62       41.41       45.09       
C           70.43       41.24       46.79       
C           69.87       42.05       47.83       
S           69.08       40.81       45.76       
H           67.9        42.66       48.58       
H           70.47       42.57       48.54       
C           68.5        42.05       47.91       
C           67.95       41.45       46.89       
C           74.71       43.22       45.84       
C           73.81       42.2        45.7        
N           74.24       43.94       46.91       
C           72.95       43.47       47.32       
C           73.61       41.05       44.91       
O           74.36       40.52       44.1        
O           72.23       44.02       48.24       
C           71.88       39.31       44.73       
C           74.98       44.99       47.71       
H           75.14255    44.61543    48.72063    
H           74.5        46.0        47.74       
H           75.93       45.28       47.39       
H           70.88       39.6        44.26       
H           71.91596    38.4182     45.3557     
H           72.52       39.14       43.78       
N           72.41       40.43       45.39       
C           72.67       42.24       46.58       
C           71.77       41.28       46.32       
C           78.05       44.36       44.17       
C           77.86       43.02       43.99       
S           76.67       45.07       44.86       
H           76.5        41.44       44.77       
H           78.62       42.3        43.6        
C           76.7        42.51       44.56       
C           75.95       43.49       45.14       
C           81.58       45.77       43.3        
C           80.71       46.81       43.26       
S           80.7        44.35       43.63       
H           78.42       47.09       43.54       
H           81.07       47.8        43.04       
C           79.33       46.46       43.59       
C           79.2        45.14       43.83       
C           85.48       46.13       42.31       
C           85.29       45.41       43.49       
S           83.88       46.79       41.97       
H           83.64       44.53       44.75       
H           86.12       44.88       43.98       
C           83.93       45.2        43.95       
C           82.99       45.82       43.15       
C           90.22       46.63       42.25       
C           89.0        46.72       41.59       
N           89.93       46.33       43.58       
C           88.52       46.26       43.85       
C           88.47       46.83       40.25       
O           88.92       47.28       39.25       
O           88.03       45.79       44.91       
C           86.14       46.97       39.34       
C           90.82       46.02       44.69       
H           90.6415     46.66973    45.54679    
H           91.88       46.1        44.4        
H           90.72       45.0        44.97       
H           85.24       47.57       39.61       
H           85.8628     46.01367    38.89649    
H           86.6        47.65       38.59       
N           87.05       46.83       40.48       
C           87.88       46.52       42.48       
C           86.75       46.52       41.78       
C           93.96       46.47       40.82       
C           93.1        46.2        39.8        
S           92.99       46.86       42.19       
H           90.9        45.94       39.52       
H           93.42       45.86       38.78       
C           91.7        46.11       40.23       
C           91.47       46.46       41.53       
C           97.72       45.5        41.03       
C           97.57       46.58       41.88       
S           96.27       45.1        40.25       
H           95.96       47.93       42.58       
H           98.4        46.92       42.48       
C           96.28       47.12       41.88       
C           95.43       46.49       40.94       
C           100.71      43.25       39.91       
C           100.93      43.69       41.19       
S           99.13       43.71       39.38       
H           99.95       44.89       42.72       
H           101.71      43.34       41.86       
C           99.88       44.5        41.64       
C           98.86       44.69       40.81       
C           104.78      40.84       38.93       
C           103.48      41.16       38.62       
N           105.08      41.44       40.17       
C           103.92      42.03       40.74       
C           102.52      40.84       37.64       
O           102.62      40.11       36.71       
O           103.92      42.47       41.91       
C           100.18      41.67       37.14       
C           106.35      42.18       40.5        
H           106.33592   43.24329    40.26058    
H           107.2       41.87       39.93       
H           106.62      41.96       41.58       
H           99.64       42.63       37.02       
H           99.58295    40.76364    37.24071    
H           100.61      41.49       36.16       
N           101.36      41.63       38.02       
C           102.9       42.0        39.64       
C           101.65      42.33       39.23       
C           106.91      39.47       35.91       
C           107.41      38.95       37.05       
S           105.46      40.31       36.26       
H           107.08      39.32       39.22       
H           108.34      38.36       36.97       
C           106.78      39.45       38.21       
C           105.64      40.21       37.97       
C           108.55      38.45       32.47       
C           107.77      39.58       32.22       
S           108.48      38.01       34.14       
H           106.63      40.97       33.48       
H           107.78      40.11       31.27       
C           107.14      40.06       33.42       
C           107.37      39.25       34.54       
C           110.79      37.15       29.6        
C           111.26      36.64       30.74       
S           109.32      37.98       29.87       
H           110.75      36.6        32.94       
H           112.21      36.13       30.72       
C           110.48      36.93       31.89       
C           109.47      37.77       31.62       
C           114.62      36.67       26.76       
C           113.27      36.9        26.9        
N           115.17      36.52       28.04       
C           114.11      36.58       28.99       
C           112.06      37.15       26.11       
O           111.88      37.17       24.98       
O           114.27      36.31       30.11       
C           109.61      37.37       26.67       
C           116.52      36.73       28.5        
H           116.68694   37.48817    29.26512    
H           117.18      37.09       27.7        
H           116.94      35.75       28.8        
H           109.04      38.11       27.21       
H           109.01524   36.47061    26.51043    
H           109.62      37.76       25.68       
N           110.99      37.22       27.13       
C           112.86      36.84       28.28       
C           111.53      37.09       28.41       
C           117.02      36.2        23.65       
C           115.78      35.92       23.26       
S           117.07      36.51       25.37       
H           113.72      35.91       24.3        
H           115.47      35.52       22.3        
C           114.82      36.1        24.36       
C           115.39      36.37       25.57       
C           119.83      36.08       20.9        
C           120.37      36.68       22.02       
S           118.16      35.68       21.16       
H           119.79      37.12       24.03       
H           121.46      37.01       22.16       
C           119.44      36.75       23.08       
C           118.25      36.12       22.84       
C           121.02      35.68       17.22       
C           121.9       36.55       17.77       
S           119.87      35.06       18.41       
H           121.94      37.81       19.61       
H           122.62      37.03       17.19       
C           121.53      36.95       19.11       
C           120.5       36.12       19.61       
C           122.14      35.81       12.54       
C           121.37      35.21       13.58       
N           122.44      37.06       12.94       
C           122.22      37.14       14.35       
C           120.56      34.07       13.9        
O           120.2       33.08       13.26       
O           122.55      38.11       15.0        
C           120.51      32.75       16.1        
C           122.53      38.33       12.27       
H           121.53731   38.77925    12.29898    
H           122.75      38.27       11.2        
H           123.35      38.9        12.62       
H           119.71      32.73       16.82       
H           121.46176   32.38565    16.48665    
H           120.31      32.05       15.35       
N           120.47      34.07       15.41       
C           121.51      35.97       14.78       
C           120.92      35.27       15.88       
C           123.27      34.58       8.93        
C           122.14      33.84       9.34        
S           123.66      35.66       10.18       
H           120.85      33.75       11.11       
H           121.64      33.1        8.71        
C           121.66      34.19       10.66       
C           122.32      35.29       11.2        
C           124.52      34.03       5.39        
C           125.35      34.91       5.89        
S           123.4       33.34       6.53        
H           125.31      36.14       7.63        
H           126.11      35.35       5.38        
C           124.92      35.26       7.19        
C           123.94      34.49       7.72        
C           124.18      32.17       1.98        
C           124.66      33.43       1.74        
S           123.98      31.92       3.73        
H           125.26      35.19       2.87        
H           124.66      33.8        0.77        
C           124.92      34.18       2.94        
C           124.53      33.53       4.06        
C           121.24      31.25       -1.7        
C           122.16      30.75       -0.75       
N           121.45      32.62       -1.79       
C           122.32      33.08       -0.77       
C           122.66      29.51       -0.15       
O           122.43      28.35       -0.45       
O           122.53      34.28       -0.57       
C           124.42      29.01       1.68        
C           121.63      33.36       -3.0        
H           122.64578   33.25419    -3.38092    
H           121.31      34.39       -2.92       
H           120.97      33.04       -3.8        
H           124.4       29.32       2.72        
H           125.36507   28.75556    1.2002      
H           123.8       28.11       1.77        
N           123.61      29.94       0.87        
C           122.76      31.85       -0.08       
C           123.52      31.37       0.95        
C           118.36      29.7        -3.96       
C           119.13      28.72       -3.5        
S           119.01      31.23       -3.49       
H           120.83      28.56       -2.14       
H           118.92      27.66       -3.71       
C           120.2       29.18       -2.68       
C           120.27      30.53       -2.55       
C           114.96      29.98       -5.72       
C           115.73      29.08       -6.47       
S           115.85      30.46       -4.29       
H           117.88      28.47       -6.49       
H           115.43      28.6        -7.48       
C           117.06      28.97       -5.95       
C           117.23      29.6        -4.81       
C           111.53      31.83       -5.52       
C           111.57      31.07       -6.55       
S           113.05      31.65       -4.67       
H           112.82      29.53       -7.57       
H           110.73      31.06       -7.19       
C           112.71      30.26       -6.79       
C           113.66      30.5        -5.87       
C           108.81      34.79       -2.92       
C           109.19      34.4        -4.21       
N           109.53      33.98       -2.04       
C           110.48      33.2        -2.75       
C           109.03      34.67       -5.61       
O           108.47      35.63       -6.15       
O           111.21      32.47       -2.05       
C           110.22      33.74       -7.69       
C           109.73      34.09       -0.61       
H           109.2454    33.31322    -0.0185     
H           110.78      34.05       -0.33       
H           109.32      34.99       -0.18       
H           110.17      32.78       -8.24       
H           111.15647   34.27812    -7.83676    
H           109.33      34.28       -7.97       
N           109.91      33.63       -6.27       
C           110.13      33.33       -4.15       
C           110.53      32.88       -5.34       
C           105.94      37.26       -1.65       
C           105.75      36.99       -2.95       
S           107.36      36.43       -1.08       
H           106.68      35.77       -4.46       
H           104.9       37.25       -3.51       
C           106.74      36.14       -3.52       
C           107.72      35.65       -2.6        
C           103.32      39.6        0.09        
C           104.46      39.58       0.84        
S           103.67      38.79       -1.43       
H           106.46      38.67       0.92        
H           104.55      40.18       1.71        
C           105.53      38.78       0.36        
C           105.15      38.13       -0.77       
C           100.06      41.14       1.7         
C           99.85       40.9        0.29        
S           101.69      40.71       2.14        
H           101.08      40.06       -1.35       
H           98.88       40.97       -0.17       
C           101.06      40.41       -0.39       
C           102.1       40.25       0.47        
C           96.73       44.23       2.91        
C           97.53       43.24       3.3         
N           96.47       44.01       1.56        
C           97.34       43.01       1.03        
C           98.35       42.85       4.42        
O           98.41       43.34       5.57        
O           97.42       42.82       -0.16       
C           99.93       40.94       4.79        
C           95.26       44.3        0.75        
H           94.52552    43.4949     0.72881     
H           95.55       44.59       -0.27       
H           94.72       45.19       1.1         
H           100.98      40.91       4.56        
H           99.49831    39.94216    4.86785     
H           99.81       41.33       5.84        
N           99.23       41.84       3.92        
C           98.08       42.52       2.19        
C           99.13       41.8        2.57        
C           94.84       47.03       4.93        
C           95.12       46.0        5.76        
S           95.34       46.71       3.28        
H           96.18       43.99       5.65        
H           94.81       45.94       6.75        
C           95.86       44.93       5.13        
C           96.04       45.12       3.8         
C           93.43       50.66       5.22        
C           92.82       49.87       6.14        
S           94.45       49.66       4.21        
H           92.85       47.65       6.73        
H           92.22       50.29       6.93        
C           93.1        48.44       6.04        
C           94.01       48.2        5.05        
C           92.97       54.6        5.82        
C           93.68       54.38       4.64        
S           92.4        53.06       6.34        
H           94.44       52.62       3.47        
H           94.08       55.24       4.07        
C           93.92       53.02       4.3         
C           93.29       52.13       5.12        
H           41.77       33.92       40.4        
H           92.96       55.55       6.39        
