392

C           38.59       14.37       9.16        
C           37.67       15.28       9.65        
N           38.24       13.12       9.55        
C           37.02       13.19       10.33       
C           37.31       16.69       9.66        
O           37.81       17.66       9.12        
O           36.59       12.2        10.91       
C           35.67       18.02       10.95       
C           38.63       11.81       9.02        
H           37.90178    11.43875    8.29892     
H           38.66       11.15       9.85        
H           39.62       11.84       8.58        
H           36.34       18.68       11.5        
H           34.80362    17.92843    11.60506    
H           35.36       18.44       9.98        
N           36.15       16.77       10.53       
C           36.69       14.57       10.41       
C           35.91       15.5        11.04       
C           41.84       14.98       6.95        
C           41.64       16.13       7.65        
S           40.64       13.8        7.29        
H           40.03       16.73       9.14        
H           42.27       16.99       7.57        
C           40.5        15.94       8.55        
C           39.85       14.69       8.54        
C           44.45       14.64       4.05        
C           43.23       14.2        3.6         
S           44.26       15.25       5.65        
H           41.24       13.83       4.4         
H           43.04       13.89       2.6         
C           42.21       14.18       4.61        
C           42.65       14.71       5.82        
C           48.24       14.59       3.23        
C           47.54       14.23       2.08        
S           47.08       14.84       4.55        
H           45.43       14.03       1.49        
H           47.99       13.75       1.2         
C           46.13       14.32       2.21        
C           45.75       14.65       3.47        
C           52.85       13.74       2.13        
C           51.91       14.31       2.94        
N           52.11       12.96       1.19        
C           50.66       12.98       1.47        
C           51.79       15.2        4.14        
O           52.69       15.76       4.79        
O           49.84       12.4        0.85        
C           49.95       16.15       5.46        
C           52.51       12.32       -0.08       
H           52.17994    12.90119    -0.94103    
H           52.3        11.26       -0.09       
H           53.62       12.21       -0.09       
H           49.1        15.76       6.02        
H           49.85482    17.18229    5.12322     
H           50.87       16.1        6.07        
N           50.36       15.25       4.41        
C           50.6        13.89       2.59        
C           49.69       14.45       3.45        
C           56.76       14.19       1.68        
C           56.29       15.33       2.3         
S           55.58       12.97       1.58        
H           54.19       16.03       2.93        
H           56.89       16.18       2.57        
C           54.79       15.26       2.47        
C           54.27       14.09       2.01        
C           60.68       13.74       1.82        
C           60.13       12.89       0.87        
S           59.39       14.73       2.46        
H           58.21       12.36       -0.04       
H           60.64       12.12       0.33        
C           58.77       13.0        0.69        
C           58.19       13.92       1.46        
C           64.41       13.43       3.15        
C           63.71       14.26       4.02        
S           63.33       12.9        1.86        
H           61.62       14.81       4.4         
H           64.12       14.73       4.89        
C           62.31       14.39       3.65        
C           61.99       13.79       2.46        
C           68.97       15.1        3.59        
C           68.06       14.13       3.17        
N           68.19       16.07       4.19        
C           66.72       15.82       4.05        
C           68.01       12.91       2.39        
O           68.84       12.14       1.88        
O           65.87       16.54       4.59        
C           66.17       11.17       2.06        
C           68.67       17.5        4.32        
H           68.02784    18.292      3.9347      
H           69.62       17.68       3.78        
H           68.96       17.71       5.34        
H           65.27       11.25       1.45        
H           66.04384    10.45507    2.87306     
H           66.96       10.66       1.48        
N           66.62       12.53       2.45        
C           66.69       14.51       3.4         
C           65.85       13.48       2.98        
C           72.97       15.26       3.81        
C           72.55       13.98       3.53        
S           71.51       16.18       4.08        
H           70.77       12.85       3.13        
H           73.28       13.2        3.31        
C           71.1        13.82       3.36        
C           70.41       14.92       3.61        
C           76.06       17.67       4.25        
C           76.43       16.35       4.49        
S           74.3        17.7        4.15        
H           75.47       14.32       4.47        
H           77.46       16.11       4.72        
C           75.39       15.38       4.28        
C           74.2        15.97       3.99        
C           78.46       20.71       4.3         
C           77.17       21.14       4.15        
S           78.49       19.0        4.48        
H           75.15       20.33       3.84        
H           77.03       22.21       4.03        
C           76.18       20.15       4.13        
C           76.73       18.92       4.34        
C           81.16       24.54       3.35        
C           81.04       23.33       3.99        
N           79.95       24.86       2.76        
C           79.22       23.58       2.79        
C           81.72       22.34       4.84        
O           82.78       22.34       5.28        
O           78.09       23.54       2.23        
C           80.92       20.49       6.29        
C           79.32       26.18       2.77        
H           78.38329    26.21659    3.32617     
H           79.23       26.59       1.82        
H           80.02       26.91       3.14        
H           80.55       19.44       6.33        
H           80.39717    20.97797    7.11258     
H           81.97       20.28       6.45        
N           80.81       21.25       5.06        
C           79.81       22.71       3.74        
C           79.64       21.48       4.29        
C           84.31       27.01       3.07        
C           84.53       26.14       4.14        
S           82.76       26.68       2.33        
H           83.41       24.48       4.96        
H           85.45       26.18       4.67        
C           83.4        25.31       4.34        
C           82.34       25.43       3.47        
C           86.93       29.55       1.93        
C           85.94       30.28       2.48        
S           86.52       27.87       1.82        
H           83.9        29.82       3.51        
H           85.98       31.36       2.52        
C           84.83       29.47       2.96        
C           85.09       28.12       2.67        
C           90.35       30.61       0.0         
C           89.75       31.67       0.61        
S           89.43       29.29       0.66        
H           88.0        32.22       1.77        
H           90.11       32.68       0.44        
C           88.57       31.4        1.39        
C           88.21       30.09       1.5         
C           94.54       32.34       -1.28       
C           93.58       31.37       -1.44       
N           94.17       33.27       -0.29       
C           92.88       32.79       0.14        
C           93.29       30.22       -2.21       
O           93.89       29.6        -3.01       
O           92.35       33.34       1.11        
C           91.2        28.9        -2.57       
C           94.76       34.49       0.36        
H           94.44813    35.39726    -0.15742    
H           95.78       34.38       0.22        
H           94.55       34.47       1.35        
H           90.25       29.31       -2.88       
H           91.01086    27.91225    -2.14968    
H           91.8        28.78       -3.44       
N           91.99       29.79       -1.7        
C           92.48       31.62       -0.6        
C           91.6        30.65       -0.68       
C           97.73       33.18       -3.32       
C           96.88       32.41       -4.14       
S           97.13       33.28       -1.7        
H           94.91       31.51       -3.84       
H           97.05       32.31       -5.19       
C           95.74       32.02       -3.43       
C           95.63       32.55       -2.21       
C           100.55      35.56       -4.57       
C           101.1       34.76       -3.6        
S           98.88       35.13       -4.86       
H           100.27      33.41       -2.04       
H           102.14      34.83       -3.28       
C           100.11      33.9        -3.02       
C           98.91       33.92       -3.66       
C           103.07      38.1        -6.16       
C           101.95      38.03       -7.0        
S           102.79      37.07       -4.76       
H           100.07      36.97       -7.03       
H           101.87      38.63       -7.9        
C           100.99      37.13       -6.52       
C           101.27      36.5        -5.33       
C           106.09      40.13       -9.38       
C           105.65      39.98       -8.06       
N           105.19      39.36       -10.11      
C           104.21      38.67       -9.29       
C           105.95      40.42       -6.72       
O           106.68      41.27       -6.23       
O           103.41      37.86       -9.73       
C           104.87      40.01       -4.5        
C           105.07      39.18       -11.52      
H           104.42623   39.93106    -11.97779   
H           104.75      38.16       -11.86      
H           106.01      39.25       -12.01      
H           104.45      39.15       -3.92       
H           104.28422   40.91463    -4.33687    
H           105.94      40.14       -4.2        
N           105.04      39.68       -5.91       
C           104.57      39.03       -7.88       
C           104.29      38.74       -6.6        
C           108.84      42.35       -11.02      
C           108.53      42.83       -9.75       
S           107.72      41.17       -11.4       
H           107.23      42.27       -8.06       
H           109.1       43.67       -9.31       
C           107.45      42.11       -9.13       
C           107.06      41.12       -9.87       
C           111.75      43.99       -12.94      
C           111.07      43.23       -13.9       
S           111.05      43.79       -11.39      
H           109.22      41.98       -13.88      
H           111.3       43.31       -14.97      
C           109.95      42.5        -13.31      
C           109.85      42.72       -11.99      
C           114.62      46.48       -13.88      
C           114.72      46.15       -12.61      
S           113.17      45.73       -14.46      
H           113.74      44.87       -11.03      
H           115.63      46.37       -12.05      
C           113.71      45.31       -12.03      
C           112.81      44.96       -12.99      
C           118.44      49.2        -14.51      
C           117.33      48.69       -15.04      
N           118.78      48.6        -13.34      
C           117.72      47.71       -13.03      
C           116.41      48.85       -16.17      
O           116.49      49.54       -17.17      
O           117.68      47.03       -12.0       
C           114.4       47.74       -16.85      
C           120.1       48.43       -12.66      
H           119.95761   48.77173    -11.6348    
H           120.83      49.01       -13.21      
H           120.39      47.37       -12.75      
H           113.33      47.55       -16.44      
H           114.6463    47.03009    -17.6396    
H           114.35      48.69       -17.29      
N           115.4       47.86       -15.86      
C           116.68      47.81       -14.11      
C           115.5       47.37       -14.6       
C           120.63      51.26       -17.02      
C           120.92      51.72       -15.83      
S           119.59      49.87       -17.0       
H           120.22      51.25       -13.79      
H           121.67      52.56       -15.72      
C           120.2       50.95       -14.82      
C           119.28      50.04       -15.32      
C           121.01      52.22       -20.73      
C           121.36      53.31       -20.03      
S           120.7       50.82       -19.71      
H           121.49      53.82       -17.85      
H           121.57      54.29       -20.47      
C           121.42      53.05       -18.59      
C           121.01      51.77       -18.29      
C           120.49      52.38       -24.62      
C           119.92      51.24       -24.15      
S           121.19      53.28       -23.32      
H           119.8       50.18       -22.29      
H           119.53      50.5        -24.85      
C           120.1       51.12       -22.75      
C           120.7       52.11       -22.13      
C           120.06      51.9        -29.36      
C           120.26      52.76       -28.23      
N           120.16      50.59       -28.94      
C           120.38      50.56       -27.47      
C           120.23      54.14       -27.84      
O           120.11      55.23       -28.45      
O           120.38      49.54       -26.83      
C           119.98      55.33       -25.65      
C           120.64      49.4        -29.67      
H           121.70055   49.22205    -29.49205   
H           120.57      49.34       -30.7       
H           119.98      48.55       -29.37      
H           120.72      55.47       -24.9       
H           118.94542   55.35141    -25.30752   
H           120.08      56.18       -26.32      
N           120.27      54.13       -26.41      
C           120.37      51.95       -27.04      
C           120.44      52.84       -26.0       
C           119.2       52.28       -33.16      
C           119.52      53.56       -32.67      
S           119.24      51.13       -31.93      
H           120.17      54.34       -30.78      
H           119.59      54.44       -33.22      
C           119.77      53.52       -31.29      
C           119.73      52.27       -30.73      
C           117.69      50.82       -36.6       
C           118.05      52.12       -36.79      
S           117.77      50.51       -34.92      
H           119.0       53.75       -35.62      
H           118.03      52.63       -37.73      
C           118.59      52.71       -35.6       
C           118.58      51.95       -34.47      
C           115.92      47.81       -38.5       
C           116.56      48.65       -39.4       
S           116.25      48.48       -36.98      
H           117.81      50.41       -39.41      
H           116.47      48.52       -40.43      
C           117.26      49.74       -38.83      
C           117.22      49.83       -37.44      
C           113.62      44.6        -41.33      
C           113.85      45.1        -40.06      
N           114.54      45.21       -42.19      
C           115.41      46.12       -41.46      
C           113.36      45.0        -38.7       
O           112.44      44.38       -38.24      
O           116.44      46.65       -41.89      
C           113.43      46.53       -36.81      
C           114.64      45.37       -43.66      
H           114.03536   46.15743    -44.10996   
H           115.63      45.7        -43.88      
H           114.42      44.43       -44.25      
H           113.61      47.58       -36.52      
H           113.82889   45.93167    -35.99086   
H           112.37      46.46       -36.88      
N           114.03      46.08       -38.03      
C           114.9       46.11       -40.09      
C           115.1       46.62       -38.81      
C           111.13      41.98       -42.82      
C           111.1       41.9        -41.48      
S           112.21      43.19       -43.37      
H           112.17      42.84       -39.82      
H           110.55      41.17       -40.96      
C           112.01      42.79       -40.86      
C           112.63      43.63       -41.71      
C           109.14      39.75       -45.4       
C           109.2       41.01       -45.92      
S           109.58      39.68       -43.73      
H           110.13      42.88       -45.3       
H           108.96      41.2        -46.98      
C           109.97      41.87       -45.05      
C           110.28      41.33       -43.86      
C           107.09      36.57       -46.76      
C           107.73      37.19       -47.83      
S           107.56      37.47       -45.3       
H           109.13      38.91       -48.07      
H           107.59      36.84       -48.8       
C           108.58      38.32       -47.39      
C           108.58      38.6        -46.05      
C           103.67      33.98       -48.96      
C           104.44      34.12       -47.85      
N           104.23      34.73       -49.97      
C           105.3       35.49       -49.51      
C           104.56      33.69       -46.51      
O           103.96      32.92       -45.83      
O           105.96      36.28       -50.21      
C           106.41      34.04       -44.85      
C           104.08      34.58       -51.45      
H           104.74768   33.82096    -51.85763   
H           104.13      35.55       -52.0       
H           103.12      34.26       -51.75      
H           106.58      34.86       -44.13      
H           107.4127    33.71745    -45.13047   
H           105.95      33.12       -44.46      
N           105.61      34.57       -45.97      
C           105.42      35.16       -48.09      
C           106.01      35.57       -46.88      
C           100.43      31.77       -49.71      
C           101.16      31.21       -48.71      
S           101.24      33.2        -50.23      
H           102.98      31.6        -47.62      
H           100.88      30.33       -48.11      
C           102.36      31.92       -48.43      
C           102.64      32.99       -49.24      
C           97.11       31.02       -51.64      
C           97.25       30.11       -50.63      
S           98.39       32.19       -51.53      
H           98.78       29.62       -49.14      
H           96.59       29.29       -50.51      
C           98.44       30.29       -49.91      
C           99.18       31.34       -50.3       
C           94.09       30.91       -54.05      
C           95.17       31.26       -54.82      
S           94.55       30.65       -52.45      
H           97.29       31.81       -54.4       
H           95.03       31.29       -55.93      
C           96.34       31.42       -54.04      
C           96.16       31.13       -52.69      
H           35.29       15.36       11.96       
H           93.05       30.71       -54.4       
