392

C           51.79       7.03        20.39       
C           51.72       6.01        19.48       
N           50.52       7.63        20.24       
C           49.71       6.93        19.21       
C           52.54       4.9         19.06       
O           53.72       4.56        19.29       
O           48.77       7.4         18.61       
C           52.4        3.27        17.14       
C           49.8        8.36        21.23       
H           49.11042    7.76682     21.8306     
H           49.16       9.03        20.79       
H           50.53       8.93        21.85       
H           51.81       3.31        16.23       
H           52.53972    2.2221      17.40547    
H           53.35       3.7         17.01       
N           51.75       4.1         18.18       
C           50.49       5.74        18.87       
C           50.5        4.68        18.03       
C           54.55       9.0         22.42       
C           54.89       7.67        22.36       
S           53.09       9.16        21.56       
H           54.11       5.74        21.53       
H           55.72       7.24        23.0        
C           54.04       6.84        21.55       
C           52.85       7.46        21.23       
C           56.49       11.5        24.63       
C           55.69       12.24       23.86       
S           56.29       9.77        24.38       
H           54.23       11.87       22.25       
H           55.44       13.26       24.03       
C           54.94       11.48       22.93       
C           55.13       10.12       23.17       
C           59.01       12.5        27.52       
C           58.9        13.57       26.59       
S           58.29       11.16       26.77       
H           57.65       14.02       24.83       
H           59.41       14.54       26.65       
C           57.94       13.3        25.59       
C           57.48       12.04       25.57       
C           62.17       14.11       30.72       
C           61.21       13.18       30.36       
N           62.3        14.93       29.63       
C           61.35       14.68       28.6        
C           60.54       11.99       30.88       
O           60.74       11.29       31.79       
O           61.41       15.23       27.56       
C           58.86       10.45       30.0        
C           62.9        16.28       29.61       
H           62.24126    17.04969    30.01218    
H           63.24       16.63       28.63       
H           63.81       16.31       30.21       
H           58.51       9.89        29.09       
H           57.98485    10.54572    30.64269    
H           59.42       9.72        30.61       
N           59.6        11.65       29.79       
C           60.67       13.48       29.06       
C           59.81       12.49       28.71       
C           64.79       13.74       33.61       
C           63.53       13.53       34.09       
S           64.59       14.25       31.98       
H           61.39       13.42       33.33       
H           63.42       13.17       35.11       
C           62.49       13.6        33.12       
C           62.9        14.11       31.94       
C           67.86       13.64       36.07       
C           68.31       14.04       34.88       
S           66.14       13.49       35.99       
H           67.54       14.39       32.83       
H           69.32       14.41       34.74       
C           67.33       14.09       33.85       
C           66.04       13.72       34.29       
C           70.3        12.38       38.91       
C           69.11       12.76       39.46       
S           70.23       12.6        37.19       
H           67.08       13.51       38.79       
H           68.88       12.75       40.51       
C           68.1        13.22       38.52       
C           68.61       13.31       37.22       
C           73.44       12.55       42.58       
C           73.17       12.08       41.35       
N           72.29       12.89       43.22       
C           71.18       12.76       42.24       
C           73.85       11.66       40.1        
O           75.0        11.41       39.94       
O           69.97       13.21       42.39       
C           73.04       10.86       37.79       
C           71.98       13.57       44.5        
H           71.26182    13.00826    45.0973     
H           71.65       14.63       44.33       
H           72.86       13.77       45.16       
H           72.37       11.15       37.03       
H           73.07711    9.77634     37.90134    
H           74.02       11.26       37.61       
N           72.77       11.58       39.08       
C           71.78       12.31       40.99       
C           71.54       12.11       39.66       
C           76.76       11.7        44.34       
C           76.44       12.97       44.64       
S           75.69       11.05       43.1        
H           74.77       14.42       44.04       
H           77.04       13.57       45.31       
C           75.22       13.4        44.0        
C           74.73       12.5        43.18       
C           79.65       9.89        46.31       
C           79.57       9.3         45.08       
S           78.44       11.14       46.52       
H           78.4        9.6         43.24       
H           80.15       8.42        44.71       
C           78.55       9.89        44.26       
C           77.88       10.92       44.82       
C           81.61       9.62        49.64       
C           82.39       9.18        48.62       
S           80.07       10.11       48.97       
H           82.67       9.13        46.51       
H           83.4        8.88        48.81       
C           81.97       9.38        47.31       
C           80.61       9.71        47.34       
C           84.73       10.1        53.26       
C           83.44       9.95        52.81       
N           85.46       10.18       52.06       
C           84.68       10.21       50.91       
C           82.11       9.74        53.33       
O           81.6        9.59        54.48       
O           85.12       10.37       49.76       
C           79.91       9.32        52.34       
C           86.82       9.67        51.92       
H           86.91042    8.59891     51.73917    
H           87.39       9.97        52.73       
H           87.35       10.27       51.16       
H           79.7        8.52        51.72       
H           79.22978    10.16491    52.2326     
H           79.9        8.8         53.34       
N           81.26       9.73        52.14       
C           83.28       10.06       51.37       
C           81.99       9.86        50.99       
C           86.88       9.27        56.53       
C           85.7        8.61        56.52       
S           86.8        10.45       55.21       
H           83.84       8.44        55.23       
H           85.45       7.97        57.35       
C           84.86       8.85        55.39       
C           85.42       9.7         54.49       
C           89.46       8.35        59.17       
C           89.49       9.63        59.14       
S           88.26       7.6         58.23       
H           88.53       11.12       57.9        
H           90.24       10.2        59.65       
C           88.62       10.12       58.11       
C           87.9        9.1         57.51       
C           92.21       6.45        61.17       
C           91.12       5.64        61.18       
S           91.76       8.06        60.62       
H           89.02       5.73        60.55       
H           91.11       4.57        61.6        
C           89.95       6.28        60.63       
C           90.24       7.52        60.05       
C           95.13       4.17        64.2        
C           94.96       5.02        63.12       
N           93.87       3.94        64.73       
C           92.87       4.46        63.82       
C           95.66       5.93        62.21       
O           96.83       5.99        62.01       
O           91.63       4.41        64.12       
C           95.01       7.26        60.15       
C           93.44       3.43        66.11       
H           92.80473    2.54767     66.03236    
H           93.0        4.2         66.76       
H           94.32       3.17        66.68       
H           94.5        8.3         60.16       
H           94.72566    6.66357     59.2831     
H           96.07       7.32        60.23       
N           94.61       6.59        61.41       
C           93.61       5.26        62.81       
C           93.4        6.22        61.84       
C           98.55       2.82        65.69       
C           98.75       4.04        65.17       
S           96.81       2.38        65.65       
H           97.49       5.52        64.08       
H           99.77       4.44        65.01       
C           97.57       4.62        64.61       
C           96.44       3.87        64.78       
C           101.68      0.54        65.87       
C           101.25      0.77        67.16       
S           100.65      1.34        64.76       
H           99.6        1.78        68.31       
H           101.78      0.31        68.01       
C           100.03      1.5         67.31       
C           99.58       1.91        66.06       
C           104.81      -1.22       64.42       
C           103.7       -1.71       63.75       
S           104.29      -0.11       65.65       
H           101.51      -1.46       63.8        
H           103.71      -2.48       63.05       
C           102.47      -1.18       64.2        
C           102.63      -0.3        65.25       
C           108.16      -4.23       62.67       
C           107.86      -3.1        63.43       
N           106.95      -4.9        62.48       
C           105.82      -4.13       63.01       
C           108.45      -1.92       64.12       
O           109.62      -1.57       64.24       
O           104.74      -4.57       63.01       
C           107.63      0.2         65.11       
C           106.79      -6.33       62.21       
H           106.14496   -6.49827    61.34761    
H           106.27      -6.76       63.09       
H           107.77      -6.78       62.14       
H           106.85      0.51        65.72       
H           107.83079   0.99597     64.39291    
H           108.55      0.01        65.69       
N           107.32      -1.09       64.44       
C           106.44      -2.95       63.58       
C           106.11      -1.74       64.22       
C           111.55      -5.14       60.86       
C           111.52      -3.82       61.13       
S           110.07      -5.85       61.32       
H           110.08      -2.45       62.0        
H           112.33      -3.09       60.87       
C           110.29      -3.48       61.73       
C           109.35      -4.39       61.96       
C           114.59      -6.87       59.3        
C           113.67      -7.87       59.46       
S           113.98      -5.29       59.71       
H           111.53      -7.89       60.15       
H           113.82      -8.89       59.17       
C           112.43      -7.31       59.98       
C           112.5       -5.99       60.24       
C           117.45      -7.34       56.66       
C           117.88      -6.43       57.68       
S           115.87      -7.85       57.09       
H           117.08      -5.68       59.67       
H           118.82      -6.0        57.61       
C           116.99      -6.32       58.82       
C           115.78      -6.94       58.56       
C           120.14      -6.25       52.84       
C           119.15      -7.1        53.36       
N           120.37      -5.14       53.66       
C           119.71      -5.45       54.92       
C           118.41      -8.34       53.13       
O           118.29      -9.08       52.27       
O           119.81      -4.71       55.82       
C           116.95      -9.71       54.59       
C           120.5       -3.72       53.25       
H           119.57296   -3.14952    53.30705    
H           120.84      -3.57       52.23       
H           121.24      -3.23       53.84       
H           116.0       -9.59       55.02       
H           117.55214   -10.53619   54.96809    
H           116.62      -10.07      53.63       
N           117.69      -8.47       54.38       
C           118.9       -6.66       54.69       
C           118.02      -7.48       55.33       
C           122.15      -6.13       49.44       
C           121.26      -7.16       49.36       
S           121.94      -5.33       50.94       
H           119.81      -8.1        50.66       
H           121.04      -7.67       48.42       
C           120.56      -7.37       50.62       
C           120.74      -6.41       51.54       
C           124.44      -5.46       46.32       
C           124.98      -4.76       47.41       
S           122.99      -6.23       46.87       
H           124.43      -4.44       49.58       
H           125.86      -4.1        47.4        
C           124.29      -4.91       48.64       
C           123.12      -5.69       48.52       
C           123.76      -5.1        42.51       
C           124.7       -4.18       42.83       
S           123.36      -6.12       43.86       
H           125.78      -3.53       44.65       
H           125.03      -3.41       42.18       
C           125.12      -4.28       44.19       
C           124.49      -5.27       44.91       
C           121.39      -3.09       38.81       
C           121.82      -4.21       39.51       
N           122.05      -2.03       39.44       
C           122.83      -2.52       40.57       
C           121.59      -5.67       39.47       
O           121.07      -6.46       38.66       
O           123.54      -1.73       41.21       
C           122.83      -7.47       40.66       
C           121.79      -0.58       39.34       
H           121.42082   -0.15509    40.27341    
H           121.11      -0.44       38.51       
H           122.68      -0.03       38.98       
H           122.96      -7.76       41.68       
H           123.77938   -7.56702    40.13334    
H           122.02      -8.06       40.2        
N           122.4       -6.09       40.6        
C           122.64      -3.9        40.6        
C           122.94      -5.03       41.34       
C           118.04      -3.15       36.73       
C           118.78      -2.08       36.36       
S           118.83      -4.1        37.97       
H           120.9       -1.45       36.71       
H           118.56      -1.35       35.6        
C           120.06      -2.08       37.01       
C           120.29      -3.11       37.85       
C           114.77      -3.86       34.82       
C           114.74      -4.55       36.0        
S           116.19      -2.95       34.66       
H           115.91      -4.82       37.79       
H           113.91      -5.09       36.37       
C           115.93      -4.46       36.79       
C           116.85      -3.63       36.17       
C           112.33      -3.84       31.72       
C           111.98      -4.86       32.53       
S           113.79      -3.07       32.34       
H           112.54      -5.61       34.5        
H           111.17      -5.53       32.33       
C           112.73      -4.89       33.74       
C           113.71      -3.91       33.84       
C           110.13      -4.76       27.57       
C           110.62      -3.79       28.47       
N           110.38      -6.0        28.15       
C           110.96      -5.87       29.44       
C           110.77      -2.37       28.7        
O           110.35      -1.39       28.11       
O           111.53      -6.83       30.07       
C           111.71      -1.01       30.52       
C           110.26      -7.39       27.66       
H           111.08331   -7.65291    26.99582    
H           110.24      -8.07       28.49       
H           109.35      -7.43       27.2        
H           112.72      -0.79       30.91       
H           110.93019   -0.68091    31.2068     
H           111.74      -0.33       29.7        
N           111.48      -2.32       29.93       
C           111.21      -4.45       29.58       
C           111.84      -3.58       30.41       
C           107.63      -4.34       24.7        
C           108.36      -3.2        24.7        
S           108.31      -5.57       25.63       
H           109.95      -2.46       26.1        
H           108.09      -2.39       24.14       
C           109.26      -3.29       25.77       
C           109.34      -4.5        26.4        
C           104.24      -4.95       22.78       
C           105.1       -6.02       22.54       
S           105.06      -3.8        23.74       
H           107.04      -6.64       23.15       
H           104.8       -6.79       21.92       
C           106.29      -5.92       23.3        
C           106.54      -4.7        23.84       
C           100.42      -4.48       22.48       
C           100.77      -5.29       21.46       
S           101.87      -3.75       23.24       
H           102.61      -6.34       20.73       
H           100.1       -5.77       20.77       
C           102.14      -5.53       21.42       
C           102.89      -4.79       22.32       
C           95.54       -4.81       22.44       
C           96.69       -4.29       23.01       
N           95.92       -5.87       21.63       
C           97.39       -5.93       21.56       
C           97.21       -3.25       23.97       
O           96.59       -2.55       24.75       
O           98.0        -6.69       20.85       
C           99.4        -2.32       24.64       
C           95.18       -6.97       21.18       
H           95.27051    -7.14406    20.1078     
H           94.09       -6.85       21.44       
H           95.49       -7.84       21.72       
H           100.25      -1.86       24.22       
H           99.51603    -2.61007    25.68427    
H           98.86       -1.34       24.6        
N           98.64       -3.25       23.78       
C           97.87       -4.89       22.38       
C           99.02       -4.22       22.89       
C           92.08       -3.63       23.81       
C           92.04       -3.73       22.44       
S           93.69       -3.94       24.44       
H           93.28       -4.51       20.83       
H           91.12       -3.51       21.86       
C           93.16       -4.22       21.84       
C           94.23       -4.36       22.81       
C           89.79       -1.85       26.44       
C           89.16       -1.85       25.28       
S           91.38       -2.57       26.26       
H           89.48       -2.5        23.17       
H           88.28       -1.29       25.05       
C           89.83       -2.54       24.23       
C           91.03       -3.08       24.63       
C           88.45       0.09        29.53       
C           89.82       0.19        29.52       
S           87.85       -0.93       28.27       
H           91.46       -0.69       28.27       
H           90.41       0.86        30.22       
C           90.42       -0.59       28.43       
C           89.49       -1.18       27.68       
H           49.78       4.46        17.18       
H           87.86       0.87        30.0        
