392

C           46.15       36.13       38.49       
C           45.66       36.75       39.55       
N           45.92       34.75       38.64       
C           45.01       34.53       39.74       
C           45.67       38.05       40.22       
O           46.19       39.14       39.95       
O           44.57       33.42       40.07       
C           44.73       38.85       42.37       
C           46.8        33.71       38.13       
H           47.37157    33.24235    38.93169    
H           47.48       33.99       37.43       
H           46.11       32.97       37.61       
H           45.55       38.83       43.06       
H           43.83665    38.79874    42.99242    
H           44.86       39.87       41.92       
N           44.84       37.82       41.37       
C           44.94       35.82       40.34       
C           44.48       36.5        41.47       
C           49.19       37.76       36.46       
C           48.36       37.07       35.66       
S           48.4        37.76       38.01       
H           46.4        35.98       35.7        
H           48.46       37.08       34.6        
C           47.19       36.51       36.26       
C           47.07       36.75       37.56       
C           52.64       39.55       36.12       
C           52.05       39.42       34.86       
S           51.46       39.18       37.4        
H           50.28       38.43       34.02       
H           52.63       39.57       33.93       
C           50.79       38.79       34.89       
C           50.35       38.58       36.16       
C           56.34       40.92       36.35       
C           56.0        40.33       37.55       
S           54.97       40.89       35.35       
H           54.3        39.25       38.47       
H           56.71       40.29       38.32       
C           54.68       39.8        37.61       
C           53.95       40.05       36.48       
C           61.23       40.98       36.46       
C           60.06       41.4        35.83       
N           60.82       40.31       37.6        
C           59.36       40.09       37.57       
C           59.52       42.04       34.67       
O           60.15       42.49       33.68       
O           58.76       39.4        38.4        
C           57.25       42.57       33.67       
C           61.6        40.29       38.86       
H           61.08277    40.84418    39.64324    
H           62.56       40.82       38.63       
H           61.79       39.26       39.17       
H           56.29       42.87       33.88       
H           57.22014    41.9952     32.74436    
H           57.66       43.54       33.45       
N           58.04       42.0        34.77       
C           58.86       40.89       36.49       
C           57.68       41.26       35.88       
C           65.03       41.59       35.52       
C           64.25       42.47       34.87       
S           63.99       40.59       36.51       
H           62.05       42.87       34.75       
H           64.57       43.22       34.15       
C           62.88       42.3        35.14       
C           62.55       41.38       36.11       
C           69.05       41.71       35.43       
C           68.67       40.43       35.7        
S           67.58       42.62       35.1        
H           66.84       39.36       36.31       
H           69.35       39.7        35.9        
C           67.23       40.27       35.87       
C           66.48       41.35       35.55       
C           72.5        43.06       36.56       
C           72.11       43.84       35.52       
S           71.28       41.87       36.85       
H           70.33       44.0        34.29       
H           72.61       44.71       35.15       
C           70.87       43.4        34.92       
C           70.29       42.34       35.54       
C           76.1        45.6        38.35       
C           75.42       44.51       38.42       
N           75.65       46.36       37.32       
C           74.51       45.79       36.72       
C           75.21       43.3        39.16       
O           75.78       42.82       40.05       
O           73.87       46.45       35.85       
C           74.0        41.18       38.71       
C           76.45       47.33       36.61       
H           76.79729    46.94018    35.65317    
H           77.43       47.58       37.06       
H           75.96       48.29       36.51       
H           73.53       40.64       37.93       
H           73.4987     40.92239    39.64297    
H           74.99       40.82       38.75       
N           74.15       42.58       38.49       
C           74.44       44.52       37.42       
C           73.62       43.42       37.48       
C           79.1        47.13       40.48       
C           79.02       45.82       40.78       
S           77.76       47.57       39.47       
H           77.71       44.09       40.27       
H           79.7        45.38       41.49       
C           77.9        45.17       40.14       
C           77.22       45.92       39.21       
C           82.0        49.59       41.62       
C           80.88       50.28       41.3        
S           81.71       47.87       41.45       
H           78.86       49.88       40.42       
H           80.8        51.32       41.47       
C           79.84       49.51       40.67       
C           80.05       48.17       40.84       
C           84.35       51.35       44.25       
C           85.13       50.41       43.5        
S           82.73       51.25       43.69       
H           84.88       49.04       41.83       
H           86.17       50.29       43.68       
C           84.39       49.75       42.51       
C           83.06       50.15       42.4        
C           86.71       51.59       48.41       
C           85.73       52.06       47.64       
N           87.21       50.5        47.78       
C           86.77       50.37       46.41       
C           84.64       53.06       47.57       
O           84.26       53.97       48.31       
O           87.45       49.65       45.6        
C           82.77       53.46       46.01       
C           87.42       49.2        48.5        
H           86.67401    48.46808    48.19034    
H           87.29       49.33       49.51       
H           88.39       48.77       48.33       
H           82.0        52.88       45.54       
H           82.96017    54.45838    45.61608    
H           82.37       53.68       46.98       
N           83.99       52.75       46.31       
C           85.72       51.36       46.35       
C           84.73       51.8        45.54       
C           88.25       52.87       51.67       
C           86.96       53.15       51.77       
S           88.66       51.92       50.29       
H           85.26       52.99       50.43       
H           86.47       53.69       52.57       
C           86.29       52.81       50.58       
C           87.01       52.03       49.74       
C           91.69       53.38       53.31       
C           90.88       54.35       53.92       
S           90.81       52.33       52.3        
H           88.76       55.11       53.7        
H           91.26       55.08       54.64       
C           89.54       54.32       53.41       
C           89.36       53.28       52.51       
C           95.63       53.48       53.38       
C           95.22       52.23       53.8        
S           94.19       54.42       53.08       
H           93.31       51.09       54.03       
H           95.88       51.47       54.24       
C           93.82       52.05       53.83       
C           93.11       53.18       53.51       
C           100.32      53.07       53.86       
C           99.31       53.88       53.7        
N           99.83       51.81       53.76       
C           98.43       51.73       53.47       
C           98.86       55.3        53.7        
O           99.45       56.43       53.82       
O           97.75       50.66       53.39       
C           96.72       56.59       53.4        
C           100.56      50.55       54.05       
H           100.46141   49.7754     53.28949    
H           100.24      50.26       55.1        
H           101.62      50.67       54.16       
H           95.65       56.49       53.67       
H           96.8397     57.0547     52.42131    
H           97.15       57.27       54.11       
N           97.45       55.29       53.51       
C           98.09       53.14       53.52       
C           96.99       53.91       53.44       
C           103.92      54.1        55.22       
C           103.56      55.0        54.32       
S           102.72      52.95       55.39       
H           101.7       55.35       53.03       
H           104.18      55.8        54.02       
C           102.23      54.76       53.8        
C           101.66      53.58       54.2        
C           107.55      53.9        56.7        
C           106.69      53.17       57.51       
S           106.59      54.67       55.41       
H           104.53      52.62       57.47       
H           107.05      52.56       58.29       
C           105.33      53.21       57.11       
C           105.11      53.96       56.0        
C           111.41      54.06       57.04       
C           110.98      55.18       56.3        
S           110.07      53.04       57.31       
H           109.09      56.16       55.86       
H           111.66      55.93       55.91       
C           109.59      55.24       56.22       
C           108.98      54.15       56.66       
C           116.0       53.58       55.66       
C           114.99      53.22       56.53       
N           115.49      54.53       54.8        
C           114.08      54.78       55.09       
C           114.73      52.42       57.72       
O           115.36      51.63       58.35       
O           113.37      55.51       54.39       
C           112.73      52.1        59.13       
C           116.1       55.13       53.6        
H           115.62523   54.73558    52.7016     
H           117.18      55.08       53.57       
H           115.98      56.22       53.63       
H           111.85      51.65       58.87       
H           112.59577   52.71461    60.02013    
H           113.33      51.26       59.45       
N           113.31      52.72       57.97       
C           113.83      53.98       56.21       
C           112.81      53.65       57.04       
C           119.8       52.38       55.41       
C           119.24      51.93       56.62       
S           118.7       53.31       54.52       
H           117.32      52.39       57.64       
H           119.84      51.39       57.37       
C           117.87      52.47       56.79       
C           117.37      53.1        55.74       
C           123.11      52.04       53.41       
C           123.41      51.73       54.74       
S           121.42      52.45       53.17       
H           122.3       51.62       56.61       
H           124.34      51.43       55.1        
C           122.27      51.81       55.54       
C           121.13      52.19       54.92       
C           124.69      52.0        49.82       
C           125.64      51.47       50.74       
S           123.28      52.44       50.67       
H           125.77      51.13       52.88       
H           126.58      51.09       50.39       
C           125.21      51.59       52.11       
C           123.96      52.09       52.26       
C           125.99      50.39       45.54       
C           125.3       51.35       46.25       
N           126.81      49.72       46.48       
C           126.41      50.02       47.81       
C           124.43      52.51       46.11       
O           124.01      53.19       45.13       
O           126.85      49.47       48.79       
C           123.44      54.12       47.74       
C           128.12      49.14       46.16       
H           128.93928   49.40826    46.82702    
H           128.45      49.55       45.22       
H           128.22      48.1        45.85       
H           123.82      54.63       48.67       
H           122.36311   54.02336    47.87806    
H           123.71      54.79       46.9        
N           124.18      52.88       47.5        
C           125.5       51.11       47.68       
C           124.76      52.01       48.37       
C           125.92      48.88       41.83       
C           125.44      50.2        41.84       
S           126.46      48.56       43.4        
H           125.1       51.84       43.23       
H           124.9       50.47       40.97       
C           125.54      50.87       43.03       
C           126.12      50.14       44.05       
C           125.68      46.48       38.72       
C           125.53      45.78       39.86       
S           126.12      48.12       39.1        
H           125.47      46.18       42.03       
H           125.37      44.72       39.87       
C           125.5       46.56       41.0        
C           125.75      47.88       40.78       
C           125.75      45.64       34.94       
C           126.18      44.55       35.65       
S           125.35      46.94       36.08       
H           126.57      44.04       37.79       
H           126.55      43.65       35.19       
C           126.14      44.69       37.07       
C           125.83      45.97       37.42       
C           123.86      43.77       30.98       
C           124.3       44.88       31.64       
N           124.09      42.68       31.79       
C           124.7       43.09       33.01       
C           124.5       46.31       31.55       
O           124.27      47.19       30.65       
O           124.95      42.3        33.88       
C           125.36      48.11       33.08       
C           123.71      41.27       31.62       
H           123.09076   40.85483    32.41516    
H           124.62      40.71       31.58       
H           123.03      41.05       30.77       
H           125.99      48.33       33.92       
H           124.59863   48.87842    32.94605    
H           126.11      48.26       32.32       
N           124.94      46.7        32.88       
C           124.81      44.52       32.95       
C           125.19      45.61       33.66       
C           122.76      43.29       27.18       
C           122.83      44.65       27.43       
S           123.22      42.39       28.59       
H           123.1       45.91       29.08       
H           122.58      45.41       26.75       
C           123.22      44.89       28.75       
C           123.42      43.84       29.58       
C           120.91      42.15       23.98       
C           121.55      41.03       24.35       
S           121.09      43.51       25.03       
H           122.95      40.53       25.96       
H           121.42      40.01       23.9        
C           122.41      41.32       25.47       
C           122.2       42.55       26.0        
C           118.33      41.57       21.12       
C           118.57      42.92       21.32       
S           119.13      40.76       22.45       
H           119.96      44.32       22.48       
H           118.15      43.7        20.68       
C           119.54      43.27       22.3        
C           119.99      42.18       22.97       
C           114.16      41.38       18.76       
C           115.34      40.76       19.03       
N           114.19      42.63       19.36       
C           115.39      42.79       20.12       
C           116.14      39.67       18.69       
O           115.99      38.76       17.91       
O           115.58      43.87       20.66       
C           118.54      39.09       19.14       
C           113.35      43.81       19.32       
H           112.69717   43.74472    20.19043    
H           113.81      44.74       19.54       
H           112.86      43.89       18.35       
H           119.21      39.12       19.95       
H           119.11623   39.44741    18.28659    
H           118.25      38.09       18.92       
N           117.38      39.9        19.43       
C           116.08      41.54       19.97       
C           117.31      41.03       20.2        
C           111.62      40.75       15.75       
C           112.33      39.62       16.05       
S           111.96      41.88       16.97       
H           113.71      38.81       17.47       
H           112.33      38.75       15.47       
C           113.18      39.71       17.15       
C           113.17      40.92       17.78       
C           109.23      41.76       12.82       
C           109.21      40.45       12.91       
S           110.27      42.42       14.07       
H           110.09      38.91       14.24       
H           108.78      39.77       12.28       
C           109.96      39.93       13.98       
C           110.67      40.89       14.73       
C           108.08      44.7        10.56       
C           107.28      43.59       10.28       
S           109.29      44.28       11.69       
H           107.1       41.55       11.08       
H           106.55      43.59       9.54        
C           107.57      42.49       11.07       
C           108.63      42.66       11.89       
C           108.37      46.92       6.32        
C           108.59      46.99       7.69        
N           107.76      45.7        6.07        
C           107.54      44.9        7.26        
C           109.14      47.74       8.76        
O           109.7       48.78       8.78        
O           106.89      43.82       7.28        
C           109.28      47.59       11.29       
C           107.77      44.92       4.9         
H           108.5916    44.20374    4.90702     
H           107.97      45.49       3.98        
H           106.76      44.51       4.79        
H           109.46      46.83       12.04       
H           108.54378   48.29677    11.67283    
H           110.25      48.01       11.07       
N           108.87      47.04       9.96        
C           108.06      45.73       8.28        
C           108.3       45.77       9.63        
C           109.45      49.54       3.51        
C           110.27      49.65       4.64        
S           108.28      48.26       3.82        
H           110.53      48.53       6.53        
H           111.01      50.33       4.65        
C           109.98      48.67       5.58        
C           108.94      47.87       5.34        
C           110.06      51.3        0.1         
C           108.76      51.0        0.24        
S           110.85      50.96       1.58        
H           107.38      49.86       1.55        
H           107.98      51.15       -0.58       
C           108.39      50.34       1.4         
C           109.43      50.21       2.29        
C           112.34      53.12       -2.44       
C           111.55      52.21       -3.14       
S           111.97      53.04       -0.73       
H           109.89      50.77       -2.74       
H           111.82      51.99       -4.16       
C           110.66      51.48       -2.35       
C           110.79      51.78       -1.04       
H           43.71       36.13       42.2        
H           113.28      53.62       -2.82       
