392

C           47.12       4.12        7.95        
C           46.68       5.47        7.73        
N           45.99       3.41        8.26        
C           44.83       4.17        8.39        
C           47.09       6.83        7.32        
O           48.17       7.39        7.05        
O           43.74       3.79        8.66        
C           45.8        9.01        7.17        
C           45.9        2.05        8.82        
H           45.55781    2.0001      9.85369     
H           46.86       1.52        8.9         
H           45.28       1.36        8.32        
H           45.44       9.55        7.98        
H           45.19997    9.28471     6.30248     
H           46.84       9.26        6.99        
N           45.87       7.57        7.51        
C           45.25       5.51        8.01        
C           44.75       6.75        7.93        
C           50.81       2.61        7.71        
C           50.61       3.58        6.77        
S           49.36       2.54        8.68        
H           48.91       4.89        6.14        
H           51.43       3.88        6.18        
C           49.24       4.1         6.79        
C           48.42       3.56        7.72        
C           54.36       1.08        7.98        
C           53.53       0.23        8.64        
S           53.54       2.4         7.25        
H           51.39       0.03        8.96        
H           53.83       -0.6        9.32        
C           52.15       0.64        8.5         
C           51.99       1.85        7.89        
C           58.26       0.6         7.1         
C           58.03       0.24        8.44        
S           56.73       1.15        6.46        
H           56.28       0.03        9.87        
H           58.82       -0.2        9.02        
C           56.67       0.37        8.89        
C           55.82       0.91        7.97        
C           63.0        1.04        6.82        
C           61.84       0.91        6.11        
N           62.72       1.26        8.18        
C           61.28       1.22        8.38        
C           61.21       0.61        4.83        
O           61.65       0.55        3.73        
O           60.78       1.52        9.47        
C           58.99       -0.08       4.12        
C           63.52       1.87        9.25        
H           63.63503    2.94123     9.08464     
H           64.5        1.45        9.26        
H           63.11       1.62        10.22       
H           57.96       0.27        4.33        
H           58.9553     -1.16943    4.12694     
H           59.43       0.34        3.2         
N           59.8        0.48        5.13        
C           60.72       0.94        7.08        
C           59.5        0.71        6.45        
C           66.79       0.49        5.66        
C           65.97       0.33        4.63        
S           65.84       0.91        6.98        
H           63.88       0.45        4.15        
H           66.31       0.22        3.62        
C           64.61       0.47        4.92        
C           64.29       0.8         6.21        
C           70.38       1.42        4.66        
C           70.33       1.57        6.02        
S           68.94       0.71        4.01        
H           68.69       1.38        7.59        
H           71.16       2.0         6.61        
C           69.1        1.2         6.6         
C           68.23       0.75        5.64        
C           73.49       1.72        2.32        
C           73.33       2.91        2.99        
S           72.11       0.68        2.74        
H           72.01       3.92        4.4         
H           74.02       3.77        2.86        
C           72.19       3.02        3.82        
C           71.45       1.91        3.85        
C           76.06       2.88        -1.53       
C           75.65       1.88        -0.66       
N           75.3        3.97        -1.25       
C           74.47       3.78        -0.1        
C           75.91       0.51        -0.23       
O           76.64       -0.39       -0.62       
O           73.7        4.59        0.34        
C           75.2        -0.91       1.65        
C           75.03       5.16        -2.04       
H           75.35235    6.06532     -1.52562    
H           73.93       5.13        -2.27       
H           75.46       5.04        -3.02       
H           74.25       -1.46       1.69        
H           75.67305    -0.74055    2.61727     
H           75.88       -1.59       1.2         
N           75.05       0.33        0.9         
C           74.75       2.4         0.29        
C           74.34       1.46        1.21        
C           79.09       2.88        -3.97       
C           78.49       1.66        -3.97       
S           78.06       3.93        -3.1        
H           76.86       0.53        -2.94       
H           78.86       0.83        -4.62       
C           77.4        1.48        -3.14       
C           76.99       2.69        -2.64       
C           82.59       3.54        -5.39       
C           81.87       4.64        -5.54       
S           81.61       2.23        -4.74       
H           79.8        5.35        -5.25       
H           82.22       5.58        -5.97       
C           80.53       4.52        -5.11       
C           80.29       3.28        -4.63       
C           86.1        3.65        -7.25       
C           86.07       2.58        -6.37       
S           84.56       4.43        -7.13       
H           84.64       1.58        -4.8        
H           86.89       1.93        -6.33       
C           84.87       2.38        -5.58       
C           83.92       3.36        -5.87       
C           88.87       6.37        -10.0       
C           88.61       5.11        -9.48       
N           87.96       7.27        -9.43       
C           87.01       6.62        -8.54       
C           88.96       3.7         -9.66       
O           89.68       3.14        -10.43      
O           85.93       6.99        -8.18       
C           87.83       1.64        -8.94       
C           87.96       8.72        -9.28       
H           87.02802    9.18599     -9.59993    
H           88.69       9.05        -10.01      
H           88.32       9.01        -8.31       
H           86.76       1.41        -8.9        
H           88.46638    1.00362     -8.32507    
H           88.09       1.54        -9.95       
N           88.06       3.02        -8.73       
C           87.48       5.23        -8.59       
C           87.2        3.97        -8.1        
C           92.48       7.08        -11.33      
C           91.67       7.75        -12.18      
S           91.61       6.35        -10.06      
H           89.44       7.83        -12.47      
H           92.1        8.32        -13.07      
C           90.29       7.5         -11.86      
C           90.07       6.68        -10.75      
C           96.09       5.77        -10.86      
C           96.14       6.81        -11.78      
S           94.47       5.49        -10.43      
H           94.7        8.25        -12.73      
H           97.07       7.25        -12.05      
C           94.89       7.46        -12.0       
C           93.9        6.82        -11.36      
C           98.16       3.09        -8.69       
C           99.02       3.9         -9.36       
S           96.62       3.7         -9.05       
H           99.09       5.72        -10.73      
H           100.13      3.8         -9.33       
C           98.48       5.02        -10.12      
C           97.1        4.96        -10.15      
C           101.2       -0.51       -7.51       
C           99.92       0.06        -7.33       
N           101.78      -0.01       -8.65       
C           101.04      1.19        -9.07       
C           98.71       -0.02       -6.53       
O           98.28       -0.7        -5.64       
O           101.45      1.93        -9.97       
C           96.59       1.33        -6.47       
C           102.45      -0.89       -9.59       
H           101.87481   -0.96101    -10.51315   
H           102.51      -1.9        -9.24       
H           103.44      -0.51       -9.8        
H           95.84       1.7         -7.23       
H           96.65968    1.83863     -5.50847    
H           96.19       0.32        -6.34       
N           97.91       1.11        -7.02       
C           99.78       1.19        -8.19       
C           98.57       1.85        -8.0        
C           103.42      -3.2        -5.65       
C           102.17      -3.46       -5.32       
S           103.57      -1.84       -6.77       
H           100.11      -2.6        -5.88       
H           101.85      -4.28       -4.67       
C           101.26      -2.59       -6.04       
C           101.83      -1.6        -6.8        
C           106.84      -4.6        -4.77       
C           105.88      -5.55       -4.38       
S           106.11      -3.2        -5.36       
H           103.73      -5.7        -4.46       
H           106.1       -6.51       -4.03       
C           104.6       -5.13       -4.62       
C           104.57      -3.93       -5.22       
C           110.54      -5.6        -4.44       
C           110.49      -4.28       -4.58       
S           108.95      -6.26       -4.9        
H           109.04      -2.69       -4.63       
H           111.37      -3.73       -4.45       
C           109.21      -3.71       -4.62       
C           108.27      -4.65       -4.72       
C           115.15      -6.86       -4.13       
C           113.84      -7.17       -4.0        
N           115.21      -5.5        -4.36       
C           113.91      -4.92       -4.55       
C           112.93      -8.28       -3.71       
O           113.22      -9.37       -3.39       
O           113.71      -3.83       -4.92       
C           110.49      -8.52       -3.4        
C           116.44      -4.7        -4.26       
H           116.58994   -4.00743    -5.08823    
H           117.32      -5.27       -3.98       
H           116.33      -4.11       -3.4        
H           109.63      -8.51       -4.08       
H           110.17541   -8.14106    -2.42762    
H           110.75      -9.57       -3.39       
N           111.61      -7.76       -3.85       
C           113.04      -6.04       -4.3        
C           111.68      -6.42       -4.29       
C           117.82      -9.65       -4.48       
C           117.0       -9.96       -3.44       
S           117.35      -8.16       -5.2        
H           115.47      -8.84       -2.21       
H           117.04      -10.85      -2.86       
C           116.19      -8.87       -3.05       
C           116.17      -7.86       -3.96       
C           120.27      -12.55      -5.65       
C           120.79      -11.35      -6.12       
S           118.8       -12.2       -4.79       
H           120.28      -9.18       -5.93       
H           121.81      -11.26      -6.54       
C           119.94      -10.2       -5.75       
C           118.75      -10.49      -5.11       
C           121.95      -15.84      -6.76       
C           121.24      -16.09      -5.58       
S           121.9       -14.18      -7.13       
H           119.96      -14.99      -4.13       
H           121.12      -17.07      -5.09       
C           120.65      -14.92      -5.01       
C           120.85      -13.84      -5.8        
C           125.74      -17.88      -8.72       
C           124.45      -17.89      -8.55       
N           126.23      -16.66      -8.23       
C           125.18      -15.87      -7.73       
C           123.28      -18.7       -8.72       
O           123.13      -19.76      -9.24       
O           125.38      -14.85      -7.19       
C           121.22      -18.94      -7.56       
C           127.38      -15.87      -8.74       
H           127.18341   -15.35304   -9.67926    
H           128.25      -16.42      -8.93       
H           127.84      -15.15      -8.06       
H           120.31      -18.38      -7.2        
H           121.43623   -19.80494   -6.93292    
H           120.79      -19.29      -8.51       
N           122.27      -18.06      -7.9        
C           124.02      -16.77      -7.83       
C           122.67      -16.84      -7.44       
C           127.27      -20.29      -11.49      
C           128.23      -19.83      -10.62      
S           125.71      -19.69      -10.93      
H           128.3       -18.61      -8.71       
H           129.31      -20.16      -10.71      
C           127.73      -19.01      -9.55       
C           126.39      -18.76      -9.6        
C           127.54      -21.33      -15.2       
C           128.51      -22.03      -14.56      
S           126.59      -20.29      -14.14      
H           129.17      -22.03      -12.33      
H           129.35      -22.52      -15.04      
C           128.47      -21.73      -13.11      
C           127.43      -20.96      -12.78      
C           127.57      -21.99      -19.05      
C           126.43      -21.26      -18.69      
S           128.52      -22.34      -17.68      
H           125.63      -20.41      -16.75      
H           125.58      -21.04      -19.32      
C           126.4       -20.92      -17.3       
C           127.44      -21.4       -16.67      
C           126.56      -23.19      -23.68      
C           127.47      -23.09      -22.65      
N           125.3       -23.14      -23.07      
C           125.39      -22.7       -21.69      
C           128.86      -23.3       -22.33      
O           129.83      -23.6       -23.0       
O           124.4       -22.5       -21.01      
C           130.3       -22.51      -20.42      
C           124.1       -23.88      -23.51      
H           123.68985   -24.59775   -22.79957   
H           124.31      -24.56      -24.32      
H           123.3       -23.27      -23.79      
H           130.54      -22.89      -19.46      
H           130.55167   -21.45297   -20.50629   
H           131.0       -23.05      -21.02      
N           128.96      -22.79      -20.94      
C           126.83      -22.76      -21.43      
C           127.75      -22.62      -20.41      
C           126.69      -23.36      -27.62      
C           127.94      -22.95      -27.21      
S           125.58      -23.55      -26.32      
H           128.83      -22.62      -25.18      
H           128.84      -22.79      -27.82      
C           127.99      -22.83      -25.79      
C           126.8       -23.1       -25.21      
C           125.11      -23.56      -31.0       
C           126.42      -23.84      -31.21      
S           124.8       -23.18      -29.35      
H           128.24      -24.04      -30.0       
H           126.86      -24.23      -32.18      
C           127.15      -23.85      -30.02      
C           126.36      -23.64      -28.88      
C           122.35      -23.3       -33.95      
C           121.73      -23.45      -32.75      
S           124.05      -23.51      -33.68      
H           122.27      -23.81      -30.7       
H           120.68      -23.43      -32.61      
C           122.65      -23.63      -31.65      
C           123.98      -23.57      -31.93      
C           118.47      -22.93      -37.0       
C           119.83      -22.88      -36.76      
N           117.92      -23.35      -35.77      
C           118.97      -23.62      -34.76      
C           121.14      -22.65      -37.43      
O           121.38      -22.38      -38.6       
O           118.68      -24.0       -33.63      
C           123.58      -22.7       -36.87      
C           116.66      -23.82      -35.47      
H           116.70188   -24.90192   -35.34436   
H           116.17      -23.43      -34.55      
H           115.97      -23.67      -36.26      
H           123.95      -23.73      -36.74      
H           124.16038   -21.86789   -36.47143   
H           123.65      -22.58      -37.97      
N           122.15      -22.74      -36.43      
C           120.22      -23.19      -35.39      
C           121.6       -23.08      -35.17      
C           116.29      -21.62      -40.08      
C           117.56      -21.18      -40.19      
S           116.13      -22.58      -38.64      
H           119.33      -21.34      -39.0       
H           117.94      -20.49      -40.97      
C           118.34      -21.55      -39.04      
C           117.76      -22.4       -38.1       
C           113.96      -20.21      -42.93      
C           113.18      -21.05      -42.21      
S           115.57      -20.18      -42.31      
H           113.53      -22.36      -40.45      
H           112.18      -21.29      -42.48      
C           113.91      -21.66      -41.13      
C           115.23      -21.29      -41.0       
C           113.41      -17.0       -45.15      
C           112.37      -17.87      -45.36      
S           114.53      -17.79      -44.04      
H           111.74      -19.98      -44.77      
H           111.59      -17.72      -46.13      
C           112.53      -19.21      -44.68      
C           113.59      -19.24      -43.92      
C           113.16      -13.44      -48.36      
C           113.74      -13.98      -47.29      
N           112.07      -14.25      -48.72      
C           112.04      -15.41      -47.87      
C           114.86      -13.82      -46.36      
O           115.84      -13.1       -46.38      
O           111.12      -16.21      -47.95      
C           115.23      -14.59      -44.05      
C           111.51      -14.51      -50.05      
H           112.1623    -15.15521   -50.63849   
H           111.52      -13.6       -50.68      
H           110.47      -14.77      -50.12      
H           115.32      -15.5       -43.42      
H           114.78518   -13.7396    -43.53322   
H           116.23      -14.43      -44.3       
N           114.62      -14.83      -45.37      
C           113.08      -15.19      -46.88      
C           113.69      -15.78      -45.82      
C           113.3       -9.81       -49.98      
C           114.46      -10.13      -49.38      
S           112.28      -11.23      -49.94      
H           115.5       -11.9       -48.45      
H           115.26      -9.5        -49.31      
C           114.62      -11.52      -49.01      
C           113.48      -12.23      -49.11      
C           111.11      -6.79       -51.03      
C           112.36      -6.36       -51.06      
S           110.98      -8.43       -50.5       
H           114.36      -7.13       -50.62      
H           112.63      -5.4        -51.49      
C           113.27      -7.38       -50.64      
C           112.67      -8.59       -50.38      
C           107.89      -5.47       -52.71      
C           108.65      -4.41       -52.36      
S           108.62      -6.91       -52.23      
H           110.77      -4.0        -51.7       
H           108.38      -3.39       -52.58      
C           109.98      -4.73       -51.86      
C           110.05      -6.1        -51.69      
H           43.72       7.1         7.94        
H           106.85      -5.41       -53.0       
