392

C           55.44       39.91       38.03       
C           56.28       40.54       38.94       
N           54.13       40.21       38.46       
C           54.14       40.79       39.78       
C           57.67       40.81       39.24       
O           58.73       40.41       38.78       
O           53.09       41.0        40.35       
C           58.74       42.63       40.65       
C           52.98       40.5        37.61       
H           53.00853    41.52711    37.24623    
H           52.08       40.1        38.09       
H           53.03       39.83       36.7        
H           59.29       42.42       41.53       
H           58.34523    43.64512    40.6923     
H           59.36       42.5        39.81       
N           57.71       41.59       40.47       
C           55.56       41.03       40.04       
C           56.42       41.66       40.99       
C           56.07       38.85       34.4        
C           57.08       39.7        34.8        
S           55.2        38.29       35.77       
H           57.41       40.98       36.59       
H           57.87       40.05       34.13       
C           56.89       40.14       36.14       
C           55.77       39.62       36.69       
C           55.3        36.82       31.19       
C           56.45       37.6        30.96       
S           54.71       37.06       32.83       
H           57.66       38.9        32.22       
H           57.02       37.62       30.07       
C           56.73       38.42       32.07       
C           55.86       38.31       33.12       
C           53.7        33.56       29.38       
C           54.79       34.03       28.65       
S           53.45       34.79       30.62       
H           56.2        35.78       28.74       
H           55.11       33.61       27.72       
C           55.38       35.26       29.19       
C           54.85       35.75       30.3        
C           52.83       29.05       27.81       
C           52.46       30.14       28.53       
N           54.05       29.38       27.25       
C           54.52       30.68       27.57       
C           51.44       30.58       29.43       
O           50.49       30.0        29.94       
O           55.56       31.17       27.2        
C           51.05       32.57       30.94       
C           54.91       28.61       26.36       
H           54.78198    28.91582    25.32164    
H           54.44       27.64       26.4        
H           55.91       28.61       26.81       
H           50.96       33.62       30.76       
H           51.45655    32.50691    31.94937    
H           50.09       32.11       30.88       
N           51.88       31.9        29.9        
C           53.41       31.18       28.42       
C           53.07       32.28       29.2        
C           51.14       25.48       27.41       
C           50.16       26.47       27.7        
S           52.7        26.19       27.44       
H           50.13       28.65       27.95       
H           49.16       26.23       27.92       
C           50.66       27.75       27.73       
C           52.02       27.87       27.53       
C           51.94       21.59       27.3        
C           50.59       21.8        27.55       
S           52.54       23.2        27.08       
H           49.01       23.39       27.77       
H           50.02       20.92       27.86       
C           50.08       23.13       27.59       
C           51.07       24.05       27.34       
C           53.6        18.28       28.63       
C           54.53       19.04       28.0        
S           52.08       18.98       28.11       
H           54.75       21.08       27.18       
H           55.61       18.8        28.15       
C           54.09       20.28       27.51       
C           52.77       20.4        27.54       
C           55.88       14.23       30.07       
C           54.73       14.96       30.0        
N           56.72       14.75       29.11       
C           56.19       15.96       28.49       
C           53.44       15.02       30.53       
O           52.84       14.26       31.22       
O           56.77       16.65       27.6        
C           51.75       16.89       30.65       
C           57.73       14.06       28.28       
H           57.26375    13.59375    27.41206    
H           58.24       13.28       28.83       
H           58.44       14.82       27.97       
H           51.13       17.46       29.93       
H           52.01466    17.53772    31.48577    
H           51.11       16.08       31.11       
N           52.92       16.3        30.07       
C           54.89       16.15       29.13       
C           53.8        16.96       29.21       
C           57.03       11.28       32.36       
C           55.73       11.22       32.22       
S           57.61       12.54       31.34       
H           54.13       12.15       31.03       
H           55.09       10.54       32.7        
C           55.15       12.09       31.26       
C           56.03       13.02       30.8        
C           59.97       9.39        34.15       
C           58.84       9.26        34.89       
S           59.69       10.56       32.92       
H           56.64       9.48        34.6        
H           58.73       8.53        35.78       
C           57.68       9.76        34.21       
C           57.98       10.52       33.15       
C           63.2        7.43        35.2        
C           63.54       8.54        34.46       
S           61.43       7.44        35.27       
H           62.71       10.39       33.55       
H           64.51       8.75        34.12       
C           62.48       9.41        34.06       
C           61.25       8.91        34.42       
C           67.29       5.18        34.77       
C           66.02       5.27        35.43       
N           67.23       5.94        33.61       
C           66.01       6.66        33.6        
C           65.33       4.81        36.61       
O           65.69       4.19        37.56       
O           65.74       7.45        32.69       
C           63.31       5.55        37.72       
C           68.12       5.9         32.44       
H           67.64604    5.74437     31.47086    
H           68.65       5.03        32.5        
H           68.9        6.64        32.47       
H           62.26       5.74        37.48       
H           63.60398    6.26787     38.48573    
H           63.29       4.6         38.1        
N           64.15       5.6         36.52       
C           65.23       6.22        34.7        
C           64.05       6.36        35.4        
C           70.43       3.39        35.94       
C           69.35       2.6         36.39       
S           69.98       4.75        34.94       
H           67.15       2.85        36.04       
H           69.45       1.79        37.07       
C           68.16       3.13        35.87       
C           68.34       4.27        35.14       
C           74.21       4.19        36.53       
C           73.97       2.89        36.92       
S           72.7        4.85        36.05       
H           72.22       1.5         37.04       
H           74.71       2.2         37.29       
C           72.6        2.49        36.84       
C           71.83       3.38        36.21       
C           78.05       5.37        36.15       
C           77.16       6.33        35.66       
S           76.98       4.04        36.59       
H           74.98       6.66        35.33       
H           77.48       7.32        35.31       
C           75.78       6.02        35.71       
C           75.45       4.89        36.31       
C           82.31       7.24        35.06       
C           81.62       6.4         35.83       
N           81.4        8.01        34.36       
C           80.06       7.44        34.47       
C           81.67       5.42        36.93       
O           82.6        5.0         37.56       
O           79.16       7.9         33.76       
C           80.07       4.02        38.26       
C           81.37       9.44        34.1        
H           80.80983    9.99325     34.85381    
H           81.08       9.67        33.1        
H           82.42       9.97        34.1        
H           79.26       3.44        38.18       
H           79.94409    4.6076      39.16938    
H           80.93       3.3         38.35       
N           80.33       4.85        37.08       
C           80.2        6.4         35.55       
C           79.48       5.4         36.21       
C           86.17       7.95        34.62       
C           86.0        7.11        35.66       
S           84.67       8.48        33.96       
H           84.34       6.14        36.66       
H           86.82       6.63        36.16       
C           84.68       6.77        35.9        
C           83.76       7.42        35.04       
C           89.22       9.61        33.05       
C           89.59       8.36        33.38       
S           87.5        9.81        33.08       
H           88.68       6.72        34.46       
H           90.6        8.04        33.38       
C           88.48       7.6         33.95       
C           87.36       8.3         33.93       
C           92.17       12.13       32.16       
C           91.07       12.53       31.44       
S           91.67       10.76       33.16       
H           88.92       11.77       31.12       
H           91.15       13.2        30.64       
C           89.87       11.74       31.7        
C           90.05       10.72       32.56       
C           95.9        13.83       29.66       
C           95.42       13.23       30.76       
N           94.87       14.03       28.77       
C           93.64       13.58       29.37       
C           95.73       12.82       32.08       
O           96.69       12.94       32.71       
O           92.58       13.65       28.79       
C           94.6        12.04       34.07       
C           94.8        14.37       27.28       
H           94.32296    15.3461     27.19193    
H           94.3        13.53       26.83       
H           95.71       14.44       26.79       
H           94.01       11.18       34.28       
H           94.41029    12.81291    34.8148     
H           95.62       11.65       34.25       
N           94.51       12.43       32.68       
C           94.0        13.14       30.67       
C           93.43       12.57       31.83       
C           99.68       14.23       28.47       
C           99.63       13.63       29.7        
S           98.09       14.51       27.92       
H           98.17       13.1        31.16       
H           100.51      13.37       30.21       
C           98.35       13.54       30.22       
C           97.36       13.92       29.37       
C           102.45      15.15       25.82       
C           103.1       14.62       26.87       
S           100.74      15.27       26.16       
H           102.38      13.76       28.87       
H           104.12      14.49       26.88       
C           102.16      14.29       27.93       
C           100.85      14.57       27.7        
C           102.7       15.91       22.04       
C           103.91      15.47       22.36       
S           101.79      16.28       23.46       
H           104.84      14.55       24.16       
H           104.58      15.13       21.56       
C           103.99      15.03       23.7        
C           102.86      15.39       24.46       
C           102.84      17.25       17.48       
C           102.13      16.72       18.48       
N           104.08      17.64       17.95       
C           104.21      17.47       19.4        
C           100.93      15.97       18.74       
O           100.1       15.43       17.97       
O           105.19      17.74       20.07       
C           100.0       15.05       20.85       
C           105.11      18.42       17.29       
H           106.05126   17.88213    17.17677    
H           105.45      19.24       17.89       
H           104.74      18.86       16.34       
H           99.71       15.58       21.68       
H           100.15203   13.97855    20.98031    
H           99.21       15.14       20.06       
N           101.09      15.7        20.15       
C           102.96      16.75       19.71       
C           102.25      16.18       20.71       
C           101.9       17.57       13.66       
C           100.74      17.37       14.45       
S           103.28      17.57       14.67       
H           100.29      17.15       16.61       
H           99.7        17.38       14.1        
C           101.02      17.29       15.83       
C           102.34      17.41       16.17       
C           101.27      18.37       9.9         
C           102.61      18.11       10.04       
S           100.56      18.31       11.48       
H           104.0       17.55       11.65       
H           103.24      18.17       9.18        
C           103.0       17.74       11.39       
C           101.99      17.73       12.26       
C           99.86       19.71       6.53        
C           98.98       18.85       7.05        
S           101.34      19.57       7.48        
H           98.75       17.51       8.8         
H           98.08       18.7        6.48        
C           99.32       18.29       8.33        
C           100.54      18.78       8.79        
C           97.89       21.07       2.43        
C           98.79       21.38       3.42        
N           97.17       19.96       2.82        
C           97.78       19.32       3.96        
C           99.69       22.38       3.91        
O           100.04      23.47       3.51        
O           97.33       18.3        4.43        
C           100.96      22.65       6.05        
C           95.81       19.67       2.46        
H           95.14786    19.77566    3.31937     
H           95.69       18.68       1.92        
H           95.29       20.49       1.76        
H           101.83      22.14       6.37        
H           100.44813   22.95852    6.96154     
H           101.33      23.51       5.43        
N           100.13      21.76       5.17        
C           98.77       20.32       4.39        
C           99.67       20.51       5.38        
C           97.35       22.53       -1.11       
C           97.83       23.47       -0.32       
S           97.2        21.03       -0.23       
H           98.38       23.88       1.77        
H           98.05       24.51       -0.67       
C           98.02       23.11       1.03        
C           97.7        21.8        1.24        
C           96.96       23.44       -4.9        
C           96.44       22.21       -4.7        
S           97.46       24.18       -3.42       
H           96.28       20.74       -3.09       
H           96.07       21.66       -5.56       
C           96.58       21.73       -3.43       
C           97.04       22.7        -2.54       
C           97.82       25.96       -7.6        
C           96.56       25.42       -8.03       
S           98.3        25.41       -6.04       
H           95.15       23.92       -7.23       
H           96.04       25.74       -8.91       
C           96.18       24.34       -7.14       
C           97.05       24.24       -6.07       
C           98.03       29.72       -10.61      
C           98.71       28.86       -9.8        
N           96.65       29.55       -10.36      
C           96.39       28.43       -9.47       
C           99.98       28.33       -9.29       
O           101.13      28.68       -9.6        
O           95.27       27.88       -9.33       
C           100.83      26.72       -7.67       
C           95.48       30.27       -10.79      
H           95.33548    31.1588     -10.17579   
H           95.55       30.56       -11.85      
H           94.54       29.82       -10.75      
H           100.74      25.66       -7.62       
H           101.1215    27.2336     -6.75385    
H           101.63      26.78       -8.37       
N           99.73       27.31       -8.34       
C           97.73       28.06       -9.04       
C           98.38       27.1        -8.27       
C           99.33       32.51       -13.02      
C           100.32      32.18       -12.09      
S           97.98       31.46       -12.81      
H           100.47      30.87       -10.34      
H           101.3       32.62       -12.07      
C           99.85       31.23       -11.2       
C           98.6        30.75       -11.37      
C           100.36      35.21       -15.51      
C           99.51       34.41       -16.18      
S           100.61      34.7        -13.92      
H           98.46       32.54       -15.79      
H           99.19       34.64       -17.22      
C           99.03       33.31       -15.33      
C           99.47       33.42       -14.08      
C           102.16      38.7        -15.92      
C           101.99      38.15       -17.18      
S           101.79      37.46       -14.74      
H           101.05      36.31       -18.08      
H           102.32      38.71       -18.07      
C           101.31      36.92       -17.17      
C           101.07      36.42       -15.95      
C           105.64      42.08       -16.49      
C           104.51      41.64       -15.73      
N           105.83      41.22       -17.56      
C           104.87      40.16       -17.47      
C           103.6       41.9        -14.62      
O           103.47      42.89       -13.9       
O           104.78      39.27       -18.36      
C           101.37      41.06       -14.12      
C           106.76      41.45       -18.68      
H           107.19438   40.52427    -19.05741   
H           107.65      42.05       -18.35      
H           106.33      42.14       -19.43      
H           100.94      40.15       -13.6       
H           100.74619   41.61128    -14.8236    
H           101.46      41.77       -13.28      
N           102.69      40.83       -14.7       
C           104.06      40.4        -16.37      
C           103.02      39.9        -15.63      
C           107.74      45.26       -15.45      
C           106.45      45.29       -15.07      
S           107.98      43.73       -16.26      
H           104.51      44.28       -15.49      
H           106.06      46.08       -14.52      
C           105.57      44.29       -15.57      
C           106.27      43.35       -16.22      
C           111.38      46.62       -15.19      
C           110.66      47.34       -14.23      
S           110.3       45.61       -16.05      
H           108.55      47.47       -13.67      
H           111.15      48.02       -13.56      
C           109.27      47.02       -14.28      
C           108.92      46.02       -15.19      
C           115.32      46.65       -15.35      
C           114.79      46.23       -16.54      
S           114.01      46.99       -14.3       
H           112.81      46.21       -17.52      
H           115.48      45.99       -17.36      
C           113.38      46.38       -16.67      
C           112.8       46.66       -15.5       
H           56.06       42.47       41.71       
H           116.29      47.14       -15.27      
