392

C           84.93       25.75       34.54       
C           85.69       26.38       33.58       
N           85.53       24.5        34.79       
C           86.69       24.32       34.02       
C           85.89       27.65       32.88       
O           85.36       28.71       32.77       
O           87.38       23.32       34.02       
C           87.53       28.5        31.19       
C           84.97       23.33       35.4        
H           85.47408    22.98212    36.30166    
H           85.02       22.53       34.63       
H           83.93       23.46       35.75       
H           87.13       28.15       30.25       
H           88.59159    28.74554    31.16111    
H           86.99       29.43       31.37       
N           87.11       27.51       32.17       
C           86.84       25.58       33.32       
C           87.59       26.2        32.38       
C           81.74       26.93       36.55       
C           81.94       27.71       35.47       
S           82.89       25.71       36.58       
H           83.43       28.02       33.89       
H           81.3        28.55       35.21       
C           83.05       27.42       34.7        
C           83.74       26.35       35.2        
C           79.11       26.27       39.22       
C           78.83       27.49       38.67       
S           80.58       25.67       38.61       
H           79.64       28.79       37.03       
H           78.02       28.08       38.94       
C           79.74       27.91       37.69       
C           80.67       26.96       37.46       
C           77.84       23.73       41.95       
C           76.78       24.24       41.21       
S           79.23       24.7        41.51       
H           76.43       25.66       39.43       
H           75.82       23.91       41.38       
C           77.12       25.11       40.09       
C           78.41       25.44       40.11       
C           75.61       21.45       45.59       
C           76.74       21.64       44.83       
N           74.66       22.43       45.17       
C           75.22       23.27       44.13       
C           78.11       21.13       44.63       
O           78.74       20.17       45.08       
O           74.7        24.22       43.55       
C           79.92       21.54       42.85       
C           73.31       22.7        45.56       
H           72.63592    22.64441    44.70524    
H           73.22       23.64       46.09       
H           73.04       22.0        46.27       
H           80.59       22.42       42.62       
H           79.77193    20.8663     42.00602    
H           80.38       20.94       43.62       
N           78.59       21.92       43.47       
C           76.54       22.71       43.88       
C           77.68       22.87       43.09       
C           75.03       19.19       48.81       
C           76.37       19.29       48.6        
S           74.14       19.96       47.56       
H           77.75       20.26       47.11       
H           77.12       18.96       49.3        
C           76.7        20.07       47.44       
C           75.57       20.54       46.77       
C           73.39       18.07       52.29       
C           72.4        18.06       51.33       
S           74.93       18.51       51.5        
H           72.22       18.36       49.22       
H           71.35       17.88       51.58       
C           72.94       18.34       50.03       
C           74.25       18.72       49.95       
C           73.85       17.89       56.17       
C           72.74       18.65       55.81       
S           74.54       17.34       54.68       
H           71.67       19.45       54.06       
H           72.23       19.21       56.56       
C           72.51       18.82       54.44       
C           73.32       18.02       53.67       
C           75.18       19.46       60.62       
C           75.04       18.49       59.65       
N           74.54       20.6        60.05       
C           74.11       20.31       58.68       
C           75.32       17.05       59.46       
O           75.9        16.23       60.11       
O           73.63       21.06       57.9        
C           74.96       15.36       57.67       
C           73.93       21.7        60.76       
H           72.85175    21.54186    60.73843    
H           74.23       22.68       60.38       
H           74.26       21.77       61.85       
H           75.47       15.31       56.77       
H           73.93756    14.98559    57.6196     
H           75.44       14.78       58.45       
N           74.99       16.78       58.1        
C           74.49       18.9        58.43       
C           74.47       17.89       57.47       
C           77.15       19.5        64.12       
C           77.7        18.67       63.17       
S           75.98       20.48       63.23       
H           77.38       17.97       61.12       
H           78.59       18.09       63.45       
C           77.13       18.65       61.89       
C           76.07       19.51       61.75       
C           78.64       19.69       67.8        
C           77.71       20.62       67.68       
S           78.84       18.84       66.31       
H           76.47       21.48       66.06       
H           77.37       21.19       68.5        
C           77.21       20.72       66.32       
C           77.62       19.74       65.46       
C           81.46       18.73       70.33       
C           80.31       19.15       71.02       
S           81.08       18.82       68.64       
H           78.3        19.82       70.63       
H           80.27       19.13       72.09       
C           79.22       19.51       70.25       
C           79.46       19.3        68.94       
C           84.81       19.22       73.81       
C           84.47       18.74       72.57       
N           83.7        19.85       74.37       
C           82.55       19.57       73.56       
C           84.96       18.14       71.36       
O           86.09       17.89       71.01       
O           81.43       19.93       73.88       
C           84.11       17.65       69.04       
C           83.56       20.51       75.63       
H           83.1373     19.89708    76.42609    
H           83.21       21.48       75.55       
H           84.66       20.62       76.01       
H           83.62       18.23       68.3        
H           83.93649    16.58117    68.91507    
H           85.16       17.79       68.93       
N           83.88       18.07       70.41       
C           83.03       19.02       72.29       
C           82.73       18.59       70.99       
C           88.45       19.16       75.46       
C           88.11       17.91       74.94       
S           87.1        20.16       75.18       
H           86.58       17.0        73.72       
H           88.75       17.06       75.06       
C           86.9        17.83       74.28       
C           86.09       18.95       74.44       
C           91.81       19.88       77.1        
C           91.32       21.06       76.67       
S           90.71       18.54       76.7        
H           89.47       21.79       75.86       
H           91.8        22.03       76.79       
C           90.03       20.93       76.16       
C           89.63       19.65       76.02       
C           95.24       18.27       78.29       
C           95.41       19.65       78.25       
S           93.58       17.86       77.7        
H           94.18       21.41       77.84       
H           96.39       20.12       78.41       
C           94.15       20.38       77.97       
C           93.05       19.53       77.65       
C           99.67       16.44       78.91       
C           98.27       16.35       78.9        
N           99.96       17.67       78.33       
C           98.71       18.43       78.12       
C           97.26       15.4        79.22       
O           97.2        14.29       79.56       
O           98.67       19.63       77.97       
C           94.82       15.45       79.69       
C           101.13      18.12       77.53       
H           100.8529    18.42553    76.52106    
H           101.91      17.39       77.47       
H           101.66      18.95       78.01       
H           93.96       15.61       79.02       
H           94.58865    15.85145    80.67662    
H           94.94       14.37       79.73       
N           96.03       16.09       79.11       
C           97.62       17.54       78.5        
C           96.27       17.35       78.56       
C           102.61      13.79       79.5        
C           101.47      13.2        79.27       
S           102.31      15.49       79.5        
H           99.36       13.61       78.78       
H           101.4       12.13       79.12       
C           100.34      14.05       79.04       
C           100.63      15.37       79.11       
C           106.04      11.79       79.63       
C           105.82      12.44       80.8        
S           104.75      12.2        78.55       
H           104.19      13.5        81.77       
H           106.51      12.34       81.66       
C           104.58      13.12       80.88       
C           103.9       13.14       79.74       
C           108.61      8.94        78.82       
C           108.51      9.76        77.7        
S           107.67      9.64        80.08       
H           107.44      11.62       77.19       
H           109.08      9.53        76.83       
C           107.74      10.96       77.97       
C           107.12      10.99       79.14       
C           110.77      5.13        76.83       
C           110.54      5.91        77.96       
N           109.86      5.59        75.89       
C           109.02      6.67        76.36       
C           111.0       6.09        79.41       
O           111.78      5.57        80.16       
O           108.11      7.12        75.75       
C           110.46      7.83        81.1        
C           109.48      4.89        74.63       
H           108.60831   4.24695     74.75146    
H           110.28      4.26        74.27       
H           109.21      5.6         73.92       
H           109.63      8.38        81.7        
H           111.28377   8.54345     81.07793    
H           110.73      7.1         81.81       
N           110.13      7.19        79.84       
C           109.5       6.87        77.69       
C           109.28      7.64        78.85       
C           113.24      2.14        76.07       
C           113.07      2.31        77.41       
S           112.42      3.43        75.3        
H           111.98      3.56        78.85       
H           113.46      1.6         78.16       
C           112.17      3.37        77.83       
C           111.56      3.95        76.75       
C           114.55      -0.27       73.32       
C           115.2       -0.71       74.44       
S           113.54      1.13        73.58       
H           115.23      -0.08       76.57       
H           115.91      -1.48       74.43       
C           114.79      0.08        75.55       
C           113.94      1.13        75.31       
C           114.93      -0.58       69.43       
C           115.63      -1.65       69.92       
S           114.32      0.42        70.7        
H           115.86      -2.56       71.96       
H           116.05      -2.45       69.31       
C           115.52      -1.75       71.39       
C           114.92      -0.65       71.97       
C           115.8       -0.91       64.68       
C           114.92      -0.47       65.7        
N           116.91      -1.52       65.27       
C           116.75      -1.38       66.75       
C           113.62      0.13        65.96       
O           112.71      0.47        65.22       
O           117.63      -1.75       67.42       
C           112.22      0.56        68.0        
C           117.93      -2.46       64.75       
H           117.88802   -3.44647    65.21175    
H           118.94      -2.06       64.81       
H           117.86      -2.72       63.68       
H           112.42      1.26        68.82       
H           111.5003    -0.25326    68.09356    
H           111.79      1.2         67.25       
N           113.54      0.12        67.4        
C           115.49      -0.79       67.03       
C           114.7       -0.28       68.01       
C           115.54      -1.23       60.77       
C           114.29      -1.16       61.34       
S           116.73      -1.17       62.02       
H           113.43      -0.91       63.37       
H           113.37      -1.07       60.71       
C           114.26      -1.1        62.77       
C           115.53      -0.98       63.26       
C           115.71      -1.22       56.84       
C           116.83      -1.91       57.3        
S           114.77      -0.67       58.25       
H           117.77      -2.29       59.28       
H           117.57      -2.39       56.69       
C           116.93      -1.87       58.74       
C           115.88      -1.33       59.37       
C           113.59      -1.03       53.6        
C           114.88      -0.98       53.29       
S           113.51      -1.01       55.37       
H           116.85      -1.14       54.19       
H           115.18      -0.93       52.25       
C           115.79      -1.14       54.37       
C           115.22      -1.13       55.56       
C           111.29      -0.12       49.34       
C           111.23      -0.29       50.75       
N           112.54      -0.66       49.05       
C           113.48      -0.8        50.18       
C           110.38      -0.13       51.85       
O           109.18      0.28        51.84       
O           114.68      -1.06       50.09       
C           110.49      -0.31       54.34       
C           112.87      -1.56       47.95       
H           112.59774   -2.59888    48.13628    
H           113.88      -1.44       47.59       
H           112.4       -1.28       47.0        
H           111.05      0.28        55.05       
H           110.20971   -1.29103    54.72356    
H           109.56      0.28        54.16       
N           111.18      -0.34       53.04       
C           112.57      -0.7        51.31       
C           112.44      -0.8        52.69       
C           108.36      1.0         46.97       
C           109.56      1.06        46.23       
S           108.55      0.52        48.63       
H           111.67      0.48        46.84       
H           109.61      1.29        45.15       
C           110.65      0.6         47.12       
C           110.28      0.32        48.38       
C           105.05      1.38        44.95       
C           104.7       1.35        46.24       
S           106.8       1.27        44.75       
H           105.65      0.99        48.2        
H           103.64      1.41        46.55       
C           105.78      1.1         47.1        
C           107.03      1.19        46.47       
C           103.53      1.43        41.48       
C           102.54      1.09        42.36       
S           105.04      1.64        42.26       
H           102.2       0.97        44.54       
H           101.52      0.91        42.05       
C           102.91      1.2         43.71       
C           104.3       1.37        43.79       
C           101.56      0.54        37.15       
C           102.34      1.34        37.88       
N           101.11      -0.46       37.99       
C           101.48      -0.21       39.39       
C           103.25      2.49        37.81       
O           103.58      3.23        36.85       
O           101.06      -0.95       40.21       
C           104.89      3.56        39.37       
C           100.9       -1.89       37.73       
H           101.86221   -2.39533    37.64693    
H           100.38      -2.36       38.62       
H           100.24      -2.06       36.91       
H           105.62      3.33        40.1        
H           104.39419   4.53068     39.37698    
H           105.38      3.52        38.43       
N           103.83      2.56        39.17       
C           102.37      0.91        39.24       
C           103.31      1.55        40.0        
C           99.81       0.7         33.72       
C           100.91      1.46        33.64       
S           99.73       -0.11       35.25       
H           102.49      2.2         35.03       
H           101.29      1.91        32.73       
C           101.66      1.53        34.84       
C           101.15      0.66        35.78       
C           97.62       0.87        30.52       
C           97.1        -0.14       31.28       
S           98.88       1.69        31.27       
H           97.73       -1.23       33.15       
H           96.27       -0.74       30.94       
C           97.84       -0.32       32.49       
C           98.75       0.66        32.73       
C           96.52       3.09        27.38       
C           95.94       1.86        27.3        
S           97.67       2.97        28.66       
H           95.75       -0.01       28.52       
H           95.23       1.62        26.56       
C           96.21       0.93        28.4        
C           97.13       1.43        29.27       
C           96.01       5.13        22.95       
C           96.29       5.32        24.29       
N           95.75       3.76        22.79       
C           96.04       3.03        24.0        
C           96.68       6.28        25.32       
O           96.95       7.5         25.32       
O           95.98       1.86        24.03       
C           96.89       6.17        27.84       
C           95.26       2.98        21.64       
H           94.26738    2.5772      21.8414     
H           95.93       2.13        21.4        
H           95.18       3.64        20.83       
H           97.5        5.56        28.43       
H           95.95924    6.49436     28.30538    
H           97.44       7.03        27.56       
N           96.73       5.5         26.55       
C           96.22       4.07        24.98       
C           96.55       4.14        26.32       
C           95.54       7.97        20.28       
C           96.45       8.35        21.2        
S           94.99       6.39        20.7        
H           97.48       7.52        22.95       
H           96.94       9.33        21.16       
C           96.82       7.33        22.15       
C           96.12       6.11        21.97       
C           94.46       10.46       17.49       
C           93.44       9.5         17.66       
S           95.65       10.15       18.63       
H           92.93       7.72        18.85       
H           92.56       9.54        17.07       
C           93.66       8.56        18.66       
C           94.85       8.8         19.33       
C           95.44       13.24       14.83       
C           94.09       12.97       14.71       
S           96.11       12.27       16.17       
H           92.61       11.69       15.68       
H           93.48       13.46       14.0        
C           93.62       11.94       15.64       
C           94.61       11.53       16.54       
H           88.5        25.79       31.94       
H           96.02       13.58       13.97       
