392

C           72.06       4.23        2.11        
C           71.76       4.11        0.78        
N           72.09       2.94        2.65        
C           71.92       2.02        1.53        
C           71.4        4.9         -0.38       
O           71.29       6.11        -0.56       
O           71.82       0.81        1.73        
C           70.77       4.2         -2.84       
C           72.44       2.44        3.98        
H           73.42207    1.96715     3.98727     
H           71.63       1.7         4.25        
H           72.58       3.2         4.75        
H           69.68       4.06        -2.9        
H           71.30072    3.66238     -3.62575    
H           70.96       5.25        -2.96       
N           71.29       3.91        -1.48       
C           71.82       2.8         0.36        
C           71.53       2.63        -0.95       
C           72.26       7.34        4.52        
C           71.39       7.58        3.52        
S           73.08       5.8         4.21        
H           70.58       6.58        1.67        
H           70.81       8.51        3.51        
C           71.21       6.55        2.61        
C           71.91       5.4         2.95        
C           73.65       9.29        7.53        
C           72.27       9.59        7.39        
S           74.13       8.11        6.3         
H           70.58       8.94        6.07        
H           71.69       10.13       8.14        
C           71.64       8.87        6.36        
C           72.5        8.16        5.7         
C           75.68       10.78       10.65       
C           76.56       10.27       9.74        
S           74.02       10.38       10.07       
H           76.49       9.08        7.82        
H           77.62       10.3        9.92        
C           75.96       9.65        8.58        
C           74.55       9.67        8.61        
C           78.32       12.05       14.51       
C           77.18       12.24       13.76       
N           79.12       11.07       13.91       
C           78.46       10.63       12.69       
C           75.92       12.94       13.73       
O           75.47       13.72       14.6        
O           79.01       9.86        11.96       
C           73.87       12.85       12.23       
C           80.42       10.5        14.21       
H           80.43423    9.4259      14.39494    
H           80.93       10.98       15.0        
H           81.08       10.6        13.34       
H           73.16       12.07       11.88       
H           73.86297    13.70044    11.54824    
H           73.51       13.16       13.23       
N           75.22       12.42       12.56       
C           77.15       11.32       12.62       
C           75.96       11.48       11.91       
C           79.89       14.1        17.52       
C           79.05       14.97       16.84       
S           79.83       12.56       16.81       
H           77.78       14.82       14.92       
H           78.83       16.01       17.1        
C           78.46       14.34       15.67       
C           78.8        13.01       15.49       
C           81.62       14.3        21.04       
C           81.77       15.53       20.52       
S           81.03       13.18       19.87       
H           81.26       16.46       18.57       
H           82.25       16.34       21.1        
C           81.3        15.56       19.13       
C           80.73       14.41       18.69       
C           83.09       12.89       24.46       
C           82.36       14.01       24.75       
S           82.97       12.54       22.79       
H           81.17       15.52       23.61       
H           82.35       14.54       25.76       
C           81.75       14.6        23.57       
C           81.85       13.85       22.42       
C           86.35       12.89       28.1        
C           85.88       12.33       26.92       
N           85.76       14.15       28.19       
C           84.8        14.31       27.11       
C           85.89       11.02       26.22       
O           86.59       9.97        26.31       
O           83.94       15.09       27.24       
C           84.63       10.06       24.3        
C           86.08       15.29       28.99       
H           86.55039    16.0571     28.37487    
H           86.99       15.11       29.63       
H           85.2        15.44       29.62       
H           84.44       10.44       23.3        
H           83.87259    9.34428     24.61964    
H           85.58       9.52        24.22       
N           84.87       11.12       25.16       
C           84.82       13.09       26.31       
C           84.23       12.4        25.26       
C           88.45       11.45       31.15       
C           88.72       10.75       30.05       
S           87.12       12.59       30.85       
H           88.15       10.81       27.96       
H           89.32       9.92        30.02       
C           88.09       11.29       28.89       
C           87.27       12.35       29.08       
C           90.34       10.48       34.37       
C           89.25       11.15       34.69       
S           90.46       10.42       32.69       
H           87.52       12.16       33.69       
H           88.95       11.41       35.74       
C           88.45       11.55       33.62       
C           88.89       11.09       32.45       
C           93.74       9.09        35.88       
C           93.18       9.87        36.84       
S           92.66       9.09        34.51       
H           91.29       10.98       37.03       
H           93.59       9.99        37.88       
C           91.84       10.31       36.46       
C           91.43       10.04       35.22       
C           98.42       10.09       36.44       
C           97.45       9.28        35.89       
N           97.76       11.0        37.25       
C           96.35       10.67       37.34       
C           97.22       8.24        34.94       
O           98.04       7.65        34.2        
O           95.61       11.26       38.04       
C           95.24       6.98        34.08       
C           98.12       12.27       37.9        
H           97.82605    13.10883    37.26908    
H           99.18       12.37       38.09       
H           97.71       12.31       38.87       
H           94.27       7.28        33.83       
H           95.25398    5.95248     34.44348    
H           95.89       6.98        33.21       
N           95.8        7.95        35.02       
C           96.14       9.57        36.45       
C           95.19       8.85        35.83       
C           101.91      10.22       34.77       
C           102.01      10.71       36.02       
S           100.28      9.64        34.42       
H           100.67      11.04       37.77       
H           102.91      11.17       36.38       
C           100.81      10.62       36.81       
C           99.79       10.14       36.04       
C           103.85      10.08       31.46       
C           104.62      10.75       32.31       
S           102.53      9.32        32.32       
H           104.55      11.35       34.49       
H           105.65      11.19       31.94       
C           104.12      10.79       33.65       
C           102.92      10.13       33.79       
C           104.95      9.68        27.74       
C           103.82      8.9         27.96       
S           105.47      10.37       29.22       
H           102.32      8.6         29.56       
H           103.43      8.3         27.18       
C           103.24      9.11        29.25       
C           103.99      9.87        30.03       
C           106.84      7.8         23.73       
C           106.91      8.82        24.71       
N           105.92      6.89        24.25       
C           105.31      7.35        25.41       
C           107.53      10.08       25.01       
O           108.31      10.69       24.43       
O           104.68      6.65        26.15       
C           106.97      11.91       26.51       
C           105.23      5.76        23.57       
H           104.27688   6.06327     23.13676    
H           105.1       4.94        24.21       
H           105.91      5.49        22.79       
H           106.86      12.09       27.58       
H           106.1882    12.49292    26.02309    
H           107.99      12.22       26.18       
N           106.89      10.51       26.22       
C           105.91      8.56        25.68       
C           105.92      9.54        26.64       
C           108.53      7.32        20.18       
C           108.63      8.68        20.53       
S           107.86      6.42        21.51       
H           108.06      9.92        22.34       
H           109.25      9.39        20.08       
C           108.17      8.94        21.89       
C           107.5       7.85        22.42       
C           109.66      6.17        16.57       
C           109.41      5.09        17.32       
S           109.34      7.59        17.49       
H           108.78      4.7         19.44       
H           109.56      4.1         16.87       
C           109.04      5.41        18.65       
C           109.0       6.71        18.95       
C           110.33      5.78        12.8        
C           110.82      7.0         13.2        
S           109.46      5.0         14.09       
H           111.13      8.08        15.09       
H           111.48      7.58        12.56       
C           110.7       7.23        14.6        
C           109.93      6.28        15.2        
C           109.99      2.49        9.35        
C           110.16      3.79        9.68        
N           110.11      1.79        10.61       
C           110.13      2.65        11.77       
C           110.22      5.15        9.21        
O           110.1       5.56        8.03        
O           109.92      2.21        12.86       
C           109.95      7.41        10.03       
C           110.29      0.29        10.82       
H           111.25428   0.01449     11.24704    
H           110.25      -0.19       9.91        
H           109.49      -0.12       11.41       
H           110.42      8.03        10.75       
H           108.90911   7.70839     9.90509     
H           110.44      7.63        9.04        
N           110.29      6.02        10.28       
C           110.19      3.99        11.12       
C           110.29      5.33        11.47       
C           109.45      0.57        5.95        
C           110.2       1.69        5.8         
S           109.06      0.5         7.64        
H           111.15      3.33        7.09        
H           110.43      2.19        4.87        
C           110.57      2.38        7.02        
C           110.13      1.81        8.12        
C           106.99      -0.93       3.35        
C           107.27      -1.94       4.22        
S           107.83      0.51        3.74        
H           108.51      -2.16       6.1         
H           106.8       -2.93       4.19        
C           108.18      -1.55       5.27        
C           108.54      -0.23       5.08        
C           103.98      -1.25       0.94        
C           104.98      -0.56       0.31        
S           104.44      -1.57       2.59        
H           107.07      -0.02       0.67        
H           104.87      -0.09       -0.7        
C           106.16      -0.43       1.08        
C           106.02      -0.91       2.35        
C           99.93       -0.39       -1.61       
C           100.66      -1.15       -0.67       
N           100.71      0.72        -1.86       
C           101.94      0.73        -1.07       
C           100.64      -2.4        0.11        
O           99.77       -3.31       0.24        
O           102.81      1.61        -1.15       
C           102.38      -3.83       1.23        
C           100.35      2.0         -2.43       
H           100.29402   2.7627      -1.65331    
H           99.41       1.86        -2.97       
H           101.03      2.3         -3.14       
H           102.76      -3.73       2.19        
H           103.19114   -4.28307    0.66001     
H           101.46      -4.46       1.37        
N           101.94      -2.56       0.68        
C           101.93      -0.56       -0.36       
C           102.67      -1.38       0.43        
C           96.71       -1.06       -3.74       
C           96.65       -1.8        -2.6        
S           98.17       -0.21       -3.75       
H           97.93       -2.29       -0.86       
H           95.72       -2.35       -2.36       
C           97.77       -1.65       -1.7        
C           98.66       -0.7        -2.18       
C           95.35       -1.31       -7.39       
C           94.45       -2.01       -6.62       
S           96.47       -0.52       -6.38       
H           94.29       -2.52       -4.45       
H           93.71       -2.57       -7.06       
C           94.85       -2.04       -5.19       
C           95.91       -1.22       -4.96       
C           95.92       -1.99       -11.27      
C           96.36       -0.7        -10.89      
S           94.99       -2.55       -9.88       
H           96.67       0.57        -9.06       
H           97.05       -0.22       -11.55      
C           96.27       -0.35       -9.51       
C           95.5        -1.26       -8.8        
C           96.49       -1.56       -16.09      
C           96.18       -2.35       -14.95      
N           96.91       -0.33       -15.6       
C           96.71       -0.29       -14.16      
C           95.76       -3.71       -14.6       
O           95.52       -4.73       -15.25      
O           96.79       0.8         -13.55      
C           95.19       -4.84       -12.39      
C           98.08       0.45        -16.11      
H           98.99214    0.23898     -15.55182   
H           97.89       1.53        -15.99      
H           98.45       0.2         -17.06      
H           94.37       -4.64       -11.7       
H           96.03068    -5.31638    -11.88559   
H           94.6        -5.46       -13.05      
N           95.59       -3.69       -13.15      
C           96.25       -1.62       -13.75      
C           95.87       -2.42       -12.64      
C           96.34       -1.86       -20.03      
C           96.1        -3.06       -19.44      
S           96.56       -0.69       -18.79      
H           95.9        -3.91       -17.43      
H           95.99       -3.99       -19.98      
C           96.0        -3.06       -18.04      
C           96.3        -1.84       -17.52      
C           96.08       -0.68       -23.79      
C           96.71       -1.87       -23.69      
S           95.56       -0.17       -22.21      
H           97.31       -3.32       -22.1       
H           97.27       -2.31       -24.49      
C           96.76       -2.41       -22.33      
C           96.39       -1.5        -21.42      
C           95.88       1.74        -26.84      
C           95.64       0.48        -27.25      
S           96.1        1.68        -25.11      
H           95.43       -1.52       -26.42      
H           95.48       0.25        -28.27      
C           95.63       -0.47       -26.19      
C           95.85       -0.0        -24.95      
C           97.29       4.46        -30.58      
C           96.75       4.39        -29.29      
N           97.38       3.13        -31.01      
C           97.07       2.21        -30.02      
C           96.28       5.23        -28.22      
O           96.32       6.4         -28.03      
O           97.18       0.99        -30.09      
C           94.86       4.57        -26.2       
C           98.14       2.62        -32.14      
H           97.53008    2.72763     -33.03694   
H           99.09       3.18        -32.25      
H           98.58       1.61        -31.89      
H           95.17       4.24        -25.17      
H           93.86412    4.18753     -26.42371   
H           94.83       5.6         -26.1       
N           95.82       4.23        -27.24      
C           96.68       3.04        -28.83      
C           96.17       2.94        -27.56      
C           98.53       7.56        -32.74      
C           97.8        7.95        -31.7       
S           98.71       5.84        -32.67      
H           96.9        7.14        -29.97      
H           97.59       9.03        -31.51      
C           97.37       6.92        -30.87      
C           97.64       5.65        -31.3       
C           100.41      10.17       -34.93      
C           100.52      8.98        -35.57      
S           99.26       10.06       -33.65      
H           99.92       6.89        -35.28      
H           101.08      8.73        -36.49      
C           99.88       7.92        -34.9       
C           99.26       8.35        -33.74      
C           102.64      13.35       -35.4       
C           101.95      13.21       -36.58      
S           102.43      11.97       -34.41      
H           100.66      11.6        -37.35      
H           101.92      13.91       -37.37      
C           101.13      12.04       -36.45      
C           101.11      11.37       -35.28      
C           104.93      17.41       -36.3       
C           104.58      16.46       -35.4       
N           104.52      17.04       -37.57      
C           103.94      15.68       -37.47      
C           104.55      16.13       -33.95      
O           105.04      16.7        -32.97      
O           103.61      15.06       -38.45      
C           103.64      14.27       -32.51      
C           104.11      17.82       -38.72      
H           103.04804   18.05912    -38.66374   
H           104.37      17.33       -39.63      
H           104.74      18.71       -38.88      
H           103.76      13.17       -32.53      
H           102.65101   14.58341    -32.17569   
H           104.5       14.68       -31.98      
N           103.99      14.78       -33.88      
C           103.95      15.39       -36.08      
C           103.58      14.47       -35.18      
C           107.41      20.52       -36.06      
C           106.76      20.3        -34.89      
S           106.69      19.4        -37.23      
H           105.35      18.94       -33.95      
H           106.9       21.01       -34.05      
C           105.89      19.19       -34.84      
C           105.66      18.63       -36.04      
C           109.33      23.82       -36.39      
C           109.69      23.09       -37.49      
S           108.24      22.91       -35.35      
H           109.13      21.05       -38.27      
H           110.43      23.38       -38.19      
C           109.01      21.83       -37.53      
C           108.14      21.63       -36.5       
C           110.34      27.32       -34.85      
C           111.35      26.84       -35.67      
S           108.99      26.17       -34.92      
H           111.91      24.97       -36.71      
H           112.36      27.31       -35.66      
C           111.22      25.45       -36.08      
C           109.91      25.05       -35.91      
H           71.23       1.7         -1.38       
H           110.28      28.36       -34.54      
