392

C           94.53       4.93        16.27       
C           94.27       6.33        16.28       
N           95.38       4.65        17.29       
C           95.71       5.87        18.04       
C           93.41       7.41        15.74       
O           92.56       7.5         14.79       
O           96.43       5.95        19.01       
C           93.32       9.9         15.99       
C           96.25       3.46        17.51       
H           97.24853    3.79284     17.22673    
H           95.96       2.56        16.96       
H           96.2        3.04        18.55       
H           93.84       10.14       15.06       
H           93.45762    10.6294     16.78821    
H           92.27       9.68        15.81       
N           93.84       8.58        16.41       
C           94.95       6.92        17.36       
C           94.71       8.32        17.48       
C           92.97       2.1         14.01       
C           92.85       3.27        13.31       
S           93.77       2.39        15.51       
H           93.41       5.4         13.71       
H           92.42       3.42        12.35       
C           93.43       4.37        14.03       
C           94.05       4.06        15.26       
C           91.96       -1.37       12.47       
C           92.18       -1.46       13.81       
S           92.25       0.32        12.06       
H           92.5        -0.19       15.57       
H           91.93       -2.35       14.3        
C           92.53       -0.27       14.49       
C           92.64       0.75        13.65       
C           90.55       -4.42       10.53       
C           90.58       -3.4        9.56        
S           91.24       -3.89       12.03       
H           91.0        -1.17       9.76        
H           90.39       -3.52       8.56        
C           90.99       -2.16       10.16       
C           91.37       -2.31       11.49       
C           89.98       -9.2        11.19       
C           89.74       -8.13       10.42       
N           90.85       -8.81       12.21       
C           91.07       -7.4        12.14       
C           89.01       -7.64       9.28        
O           88.46       -8.16       8.33        
O           91.73       -6.9        13.01       
C           88.26       -5.38       8.71        
C           91.61       -9.56       13.14       
H           92.67047    -9.62449    12.89638    
H           91.31       -10.57      13.13       
H           91.37       -9.32       14.15       
H           88.57       -4.4        8.35        
H           87.35049    -5.26358    9.29936     
H           88.07       -5.8        7.75        
N           89.3        -6.19       9.29        
C           90.37       -6.94       10.99       
C           90.17       -5.77       10.26       
C           88.44       -12.91      11.14       
C           88.31       -12.35      9.88        
S           89.21       -11.79      12.28       
H           88.64       -10.32      9.12        
H           87.84       -12.82      9.09        
C           88.8        -11.0       9.96        
C           89.49       -10.58      11.07       
C           87.63       -16.56      12.05       
C           87.72       -15.81      13.22       
S           87.89       -15.57      10.68       
H           87.97       -13.67      13.72       
H           87.64       -16.17      14.24       
C           87.84       -14.43      12.94       
C           87.99       -14.18      11.64       
C           87.76       -20.39      11.21       
C           88.31       -20.2       12.44       
S           87.21       -18.87      10.59       
H           88.56       -18.52      13.82       
H           88.9        -20.91      12.99       
C           88.11       -18.84      12.92       
C           87.53       -17.98      12.04       
C           90.1        -24.17      9.56        
C           89.04       -23.34      9.41        
N           90.85       -23.64      10.65       
C           90.08       -22.64      11.34       
C           87.83       -23.1       8.64        
O           87.42       -23.7       7.67        
O           90.65       -22.06      12.24       
C           85.88       -21.61      8.87        
C           92.06       -24.06      11.34       
H           91.82998    -24.63156   12.23917    
H           92.78       -23.26      11.51       
H           92.71       -24.7       10.66       
H           85.76       -20.56      8.66        
H           85.11028    -21.92825   9.57311     
H           85.69       -22.08      7.9         
N           87.21       -21.97      9.27        
C           88.96       -22.39      10.5        
C           88.0        -21.47      10.33       
C           91.91       -26.82      7.24        
C           90.82       -26.25      6.6         
S           91.77       -26.42      8.92        
H           89.46       -24.54      6.89        
H           90.59       -26.48      5.54        
C           90.23       -25.21      7.29        
C           90.6        -25.12      8.61        
C           94.37       -29.53      5.94        
C           94.82       -29.09      7.13        
S           92.86       -28.73      5.46        
H           94.32       -27.35      8.46        
H           95.72       -29.53      7.62        
C           94.08       -28.0       7.59        
C           92.91       -27.72      6.83        
C           95.61       -32.14      3.13        
C           96.41       -32.18      4.27        
S           94.4        -30.95      3.43        
H           96.44       -31.28      6.3         
H           97.25       -32.74      4.42        
C           95.96       -31.36      5.35        
C           94.94       -30.5       4.99        
C           97.08       -35.9       0.6         
C           96.54       -34.62      0.59        
N           97.77       -36.05      1.84        
C           97.38       -35.0       2.7         
C           95.9        -33.58      -0.25       
O           95.8        -33.47      -1.46       
O           97.68       -35.03      3.89        
C           94.76       -31.43      0.17        
C           98.79       -36.96      2.37        
H           99.75841    -36.46155   2.32728     
H           98.78       -37.9       1.85        
H           98.64       -37.21      3.4         
H           95.14       -30.6       0.72        
H           93.6743     -31.5019    0.10529     
H           95.13       -31.34      -0.83       
N           95.37       -32.68      0.7         
C           96.51       -34.13      1.91        
C           95.75       -33.02      2.01        
C           97.37       -38.54      -2.39       
C           96.56       -37.48      -2.71       
S           97.87       -38.27      -0.77       
H           95.82       -35.62      -1.94       
H           96.14       -37.48      -3.73       
C           96.45       -36.45      -1.75       
C           97.01       -36.76      -0.6        
C           98.57       -41.89      -4.0        
C           98.02       -41.13      -5.01       
S           98.47       -41.08      -2.45       
H           97.0        -39.24      -5.1        
H           97.98       -41.47      -6.06       
C           97.48       -39.93      -4.49       
C           97.6        -39.74      -3.15       
C           100.1       -45.46      -4.4        
C           100.42      -44.95      -3.15       
S           99.17       -44.3       -5.25       
H           100.08      -43.17      -1.98       
H           101.05      -45.42      -2.4        
C           99.94       -43.66      -2.93       
C           99.19       -43.14      -3.98       
C           102.83      -49.31      -4.78       
C           101.67      -48.74      -5.05       
N           103.4       -48.62      -3.74       
C           102.75      -47.39      -3.62       
C           100.39      -48.86      -5.74       
O           99.93       -49.72      -6.47       
O           103.14      -46.42      -2.98       
C           98.26       -47.49      -5.91       
C           104.36      -49.08      -2.69       
H           103.99508   -48.91944   -1.67553    
H           105.34      -48.52      -2.76       
H           104.7       -50.09      -2.81       
H           97.99       -46.51      -6.31       
H           97.65977    -47.73715   -5.03437    
H           98.02       -48.1       -6.8        
N           99.74       -47.6       -5.64       
C           101.65      -47.42      -4.52       
C           100.56      -46.73      -4.94       
C           104.93      -52.03      -6.74       
C           103.6       -52.13      -7.13       
S           105.06      -50.8       -5.48       
H           101.71      -51.09      -6.71       
H           103.28      -52.81      -7.92       
C           102.72      -51.24      -6.38       
C           103.37      -50.46      -5.49       
C           107.98      -53.98      -8.27       
C           108.38      -53.46      -7.08       
S           106.28      -53.56      -8.62       
H           107.37      -52.3       -5.39       
H           109.4       -53.55      -6.66       
C           107.3       -52.8       -6.39       
C           106.09      -52.7       -7.11       
C           109.72      -56.01      -11.17      
C           110.38      -56.25      -10.06      
S           108.28      -55.0       -10.82      
H           110.12      -55.93      -7.95       
H           111.27      -56.92      -10.04      
C           109.78      -55.64      -8.94       
C           108.78      -54.78      -9.16       
C           111.13      -59.64      -13.91      
C           110.58      -58.37      -13.88      
N           111.62      -60.06      -12.71      
C           111.28      -58.97      -11.71      
C           109.88      -57.29      -14.64      
O           109.69      -57.17      -15.83      
O           111.44      -59.2       -10.54      
C           108.71      -55.16      -14.07      
C           112.82      -60.8       -12.37      
H           113.67409   -60.14728   -12.18946   
H           113.16      -61.32      -13.27      
H           112.69      -61.54      -11.52      
H           109.03      -54.21      -13.57      
H           107.62399   -55.25288   -14.07714   
H           108.99      -55.06      -15.15      
N           109.49      -56.35      -13.61      
C           110.62      -57.93      -12.5       
C           109.95      -56.77      -12.36      
C           110.84      -62.52      -16.58      
C           110.54      -61.3       -17.22      
S           111.09      -62.3       -14.92      
H           110.39      -59.16      -16.56      
H           110.22      -61.19      -18.3       
C           110.63      -60.2       -16.29      
C           111.05      -60.57      -15.05      
C           110.54      -65.74      -18.89      
C           110.67      -66.17      -17.56      
S           110.15      -64.03      -18.81      
H           111.09      -65.2       -15.61      
H           110.61      -67.25      -17.27      
C           110.79      -65.07      -16.61      
C           110.57      -63.85      -17.16      
C           110.64      -68.19      -22.03      
C           110.53      -66.92      -22.45      
S           110.26      -68.2       -20.31      
H           110.55      -64.86      -21.5       
H           110.53      -66.81      -23.54      
C           110.54      -65.96      -21.42      
C           110.51      -66.47      -20.18      
C           109.32      -70.62      -26.02      
C           110.09      -70.63      -24.87      
N           108.53      -69.48      -26.02      
C           108.95      -68.6       -24.92      
C           110.9       -71.46      -24.02      
O           111.41      -72.54      -24.18      
O           108.38      -67.54      -24.69      
C           112.23      -71.0       -21.94      
C           107.34      -69.22      -26.82      
H           107.34744   -68.17806   -27.14002   
H           106.39      -69.58      -26.33      
H           107.26      -69.8       -27.73      
H           111.65      -70.85      -21.01      
H           113.19743   -70.49782   -21.94      
H           112.43      -72.04      -22.1       
N           111.3       -70.51      -22.93      
C           109.87      -69.4       -24.17      
C           110.54      -69.29      -22.96      
C           109.47      -72.89      -29.28      
C           109.9       -73.63      -28.19      
S           109.19      -71.25      -28.76      
H           110.1       -73.21      -25.96      
H           110.24      -74.64      -28.37      
C           109.83      -72.89      -26.93      
C           109.34      -71.61      -27.07      
C           109.54      -73.05      -33.23      
C           110.17      -74.12      -32.79      
S           109.04      -72.07      -31.86      
H           110.51      -75.06      -30.75      
H           110.74      -74.81      -33.4       
C           110.1       -74.29      -31.37      
C           109.53      -73.22      -30.67      
C           108.8       -70.98      -36.44      
C           109.98      -71.67      -36.61      
S           108.1       -71.35      -34.92      
H           111.22      -73.09      -35.48      
H           110.51      -71.58      -37.5       
C           110.26      -72.49      -35.55      
C           109.34      -72.46      -34.56      
C           109.3       -67.4       -39.58      
C           108.41      -68.17      -38.83      
N           110.54      -67.41      -38.91      
C           110.63      -68.69      -38.25      
C           107.0       -68.58      -38.66      
O           105.93      -68.12      -39.02      
O           111.64      -69.25      -37.93      
C           105.98      -70.41      -37.28      
C           111.59      -66.44      -38.81      
H           111.93411   -66.3768    -37.77768   
H           111.08      -65.46      -39.01      
H           112.37      -66.59      -39.56      
H           105.9       -70.55      -36.16      
H           105.89506   -71.40097   -37.72594   
H           105.14      -69.76      -37.49      
N           107.12      -69.67      -37.71      
C           109.21      -69.02      -37.99      
C           108.42      -69.88      -37.26      
C           108.73      -64.79      -42.4       
C           107.56      -65.0       -41.73      
S           109.97      -65.8       -41.76      
H           106.79      -66.22      -40.1       
H           106.6       -64.39      -41.96      
C           107.71      -65.96      -40.74      
C           108.95      -66.43      -40.55      
C           108.54      -62.32      -45.38      
C           109.89      -62.57      -45.1       
S           107.51      -63.34      -44.4       
H           111.02      -63.73      -43.68      
H           110.74      -61.98      -45.55      
C           110.09      -63.45      -44.08      
C           108.89      -63.9       -43.51      
C           106.16      -60.32      -47.78      
C           107.33      -59.54      -47.62      
S           106.27      -61.79      -46.81      
H           109.27      -59.98      -46.79      
H           107.5       -58.51      -47.92      
C           108.32      -60.34      -46.99      
C           107.89      -61.46      -46.4       
C           102.94      -56.91      -49.0       
C           103.39      -58.24      -49.14      
N           103.9       -56.2       -48.3       
C           105.05      -57.08      -48.03      
C           102.92      -59.54      -49.58      
O           101.98      -59.91      -50.21      
O           106.04      -56.79      -47.39      
C           103.74      -61.87      -49.18      
C           104.18      -54.8       -48.13      
H           104.13083   -54.55413   -47.06923   
H           105.11      -54.48      -48.57      
H           103.44      -54.23      -48.73      
H           103.96      -62.43      -48.32      
H           104.36404   -62.26967   -49.97934   
H           102.62      -61.97      -49.41      
N           103.96      -60.43      -49.02      
C           104.63      -58.39      -48.4       
C           104.94      -59.78      -48.25      
C           99.64       -55.22      -50.31      
C           99.97       -56.22      -51.11      
S           100.88      -55.05      -49.07      
H           101.67      -57.75      -51.17      
H           99.39       -56.64      -51.9       
C           101.2       -56.88      -50.74      
C           101.85      -56.31      -49.7       
C           96.09       -53.36      -50.35      
C           97.03       -52.45      -49.87      
S           96.89       -54.91      -50.61      
H           99.24       -52.39      -49.85      
H           96.78       -51.44      -49.6       
C           98.39       -53.03      -49.89      
C           98.51       -54.37      -50.19      
C           92.35       -53.43      -51.52      
C           92.48       -52.45      -50.6       
S           93.89       -54.22      -51.71      
H           94.21       -51.54      -49.56      
H           91.62       -51.84      -50.21      
C           93.81       -52.31      -50.17      
C           94.7        -53.19      -50.63      
C           87.73       -54.66      -51.21      
C           88.82       -54.61      -52.03      
N           88.0        -54.07      -50.02      
C           89.39       -53.83      -49.9       
C           89.38       -54.92      -53.35      
O           89.0        -55.33      -54.45      
O           89.94       -53.48      -48.84      
C           91.48       -54.01      -54.39      
C           87.1        -53.36      -49.11      
H           87.18327    -52.27754   -49.20714   
H           87.4        -53.51      -48.08      
H           86.06       -53.65      -49.24      
H           92.53       -54.1       -54.16      
H           91.27426    -53.0026    -54.75181   
H           91.15       -54.73      -55.15      
N           90.73       -54.36      -53.21      
C           89.91       -54.14      -51.21      
C           91.08       -54.04      -51.9       
C           84.09       -55.87      -52.07      
C           84.74       -55.68      -53.2       
S           85.1        -55.57      -50.68      
H           86.74       -55.02      -53.88      
H           84.39       -55.81      -54.19      
C           86.05       -55.15      -53.05      
C           86.41       -55.08      -51.7       
C           80.41       -56.25      -50.91      
C           80.4        -56.81      -52.21      
S           81.97       -55.67      -50.47      
H           81.94       -57.0       -53.73      
H           79.49       -57.08      -52.79      
C           81.73       -56.65      -52.76      
C           82.73       -56.26      -51.89      
C           77.82       -56.08      -47.92      
C           77.11       -56.18      -49.16      
S           79.5        -55.92      -48.23      
H           77.55       -56.43      -51.31      
H           76.1        -56.39      -49.2       
C           77.95       -56.26      -50.32      
C           79.29       -56.18      -49.97      
H           95.29       9.15        17.89       
H           77.52       -56.34      -46.91      
