392

C           68.09       13.76       28.77       
C           66.92       13.33       28.17       
N           68.04       15.2        28.8        
C           66.85       15.67       28.11       
C           66.27       12.07       27.79       
O           66.55       10.9        27.72       
O           66.69       16.85       27.71       
C           64.16       11.68       26.5        
C           68.81       16.11       29.72       
H           68.0629     16.70204    30.24861    
H           69.63       16.69       29.26       
H           69.34       15.54       30.45       
H           64.07       11.97       25.49       
H           63.162      11.56052    26.92169    
H           64.63       10.69       26.5        
N           64.99       12.56       27.26       
C           66.09       14.42       27.86       
C           64.94       13.91       27.29       
C           71.6        12.14       29.43       
C           70.75       11.08       29.16       
S           70.77       13.61       29.41       
H           68.6        10.88       28.72       
H           71.03       10.04       29.07       
C           69.41       11.57       28.93       
C           69.24       12.92       29.08       
C           75.42       11.3        29.25       
C           75.3        12.61       29.47       
S           73.85       10.58       29.11       
H           73.64       14.13       29.49       
H           76.21       13.22       29.72       
C           73.97       13.12       29.51       
C           73.02       12.1        29.44       
C           78.34       8.81        28.45       
C           78.86       9.84        29.27       
S           76.66       9.1         28.12       
H           78.12       11.71       30.12       
H           79.84       9.84        29.66       
C           77.86       10.78       29.53       
C           76.61       10.52       29.08       
C           82.08       5.82        28.59       
C           80.85       6.14        28.04       
N           82.26       6.6         29.78       
C           81.15       7.54        29.84       
C           79.89       5.76        26.92       
O           79.87       4.76        26.12       
O           81.02       8.37        30.76       
C           77.84       6.88        25.93       
C           82.89       6.19        30.95       
H           82.15176    5.71232     31.59415    
H           83.4        6.91        31.53       
H           83.56       5.25        30.9        
H           77.59       7.85        25.62       
H           76.92428    6.30944     26.08497    
H           78.28       6.49        25.02       
N           78.82       6.75        27.01       
C           80.29       7.26        28.69       
C           79.15       7.68        28.04       
C           84.57       2.93        27.53       
C           83.29       2.61        27.19       
S           84.55       4.56        28.26       
H           81.27       3.5         27.45       
H           83.12       1.66        26.68       
C           82.33       3.58        27.58       
C           82.82       4.61        28.26       
C           87.4        0.58        26.16       
C           87.98       1.3         27.14       
S           85.74       0.89        26.04       
H           87.26       2.96        28.52       
H           88.98       1.02        27.38       
C           87.08       2.26        27.71       
C           85.81       2.17        27.18       
C           89.71       -2.12       24.37       
C           88.47       -2.35       23.9        
S           89.73       -0.85       25.57       
H           86.44       -1.42       24.11       
H           88.23       -2.99       23.12       
C           87.51       -1.41       24.4        
C           88.02       -0.52       25.35       
C           91.85       -5.95       22.67       
C           92.02       -4.68       23.16       
N           90.54       -6.26       22.61       
C           89.73       -5.19       23.11       
C           93.01       -3.65       23.57       
O           94.22       -3.63       23.67       
O           88.58       -5.39       23.37       
C           92.8        -1.22       24.41       
C           90.01       -7.34       21.74       
H           89.18839    -7.00293    21.10799    
H           89.8        -8.29       22.21       
H           90.75       -7.56       20.99       
H           92.42       -0.92       25.29       
H           92.65913    -0.46636    23.63523    
H           93.89       -1.42       24.65       
N           92.13       -2.52       24.06       
C           90.75       -4.23       23.5        
C           90.77       -3.01       24.11       
C           94.61       -8.7        22.28       
C           95.15       -7.52       21.77       
S           92.99       -8.47       22.67       
H           94.53       -5.4        21.59       
H           96.17       -7.46       21.52       
C           94.25       -6.4        21.79       
C           92.96       -6.77       22.21       
C           96.35       -12.11      22.2        
C           96.21       -11.72      23.56       
S           95.85       -10.8       21.12       
H           95.22       -9.97       24.64       
H           96.46       -12.34      24.44       
C           95.51       -10.45      23.69       
C           95.22       -9.94       22.5        
C           97.49       -15.65      20.99       
C           97.13       -14.94      19.93       
S           97.36       -14.65      22.36       
H           96.19       -12.96      19.48       
H           97.1        -15.35      18.97       
C           96.54       -13.66      20.28       
C           96.64       -13.34      21.57       
C           99.09       -19.8       19.14       
C           98.68       -19.09      20.27       
N           99.07       -18.91      18.1        
C           98.86       -17.54      18.52       
C           98.41       -19.22      21.68       
O           98.44       -20.19      22.41       
O           98.85       -16.63      17.74       
C           97.23       -17.79      23.28       
C           99.0        -19.22      16.71       
H           99.85402    -18.84593   16.14536    
H           98.09       -18.75      16.32       
H           98.85       -20.27      16.56       
H           96.41       -17.15      23.22       
H           97.79835    -17.49162   24.16094    
H           96.89       -18.79      23.47       
N           98.07       -17.85      22.11       
C           98.49       -17.7       19.91       
C           98.02       -17.03      21.0        
C           99.84       -23.58      18.32       
C           99.19       -23.51      19.49       
S           100.21      -21.98      17.84       
H           98.18       -21.95      20.71       
H           98.91       -24.38      20.03       
C           98.81       -22.15      19.88       
C           99.18       -21.2       18.99       
C           102.21      -25.44      15.99       
C           101.94      -26.29      17.0        
S           101.3       -24.03      16.16       
H           100.74      -26.32      18.83       
H           102.42      -27.24      17.08       
C           101.02      -25.82      17.96       
C           100.62      -24.57      17.68       
C           104.91      -25.03      13.18       
C           104.84      -26.37      13.59       
S           103.73      -24.19      14.14       
H           103.56      -27.68      14.86       
H           105.51      -27.17      13.13       
C           103.83      -26.73      14.51       
C           103.15      -25.59      14.92       
C           109.28      -24.64      11.03       
C           108.06      -24.05      11.36       
N           109.17      -25.95      11.26       
C           107.89      -26.26      11.75       
C           107.21      -22.86      11.28       
O           107.44      -21.77      10.83       
O           107.54      -27.42      11.93       
C           104.89      -22.24      11.68       
C           110.14      -27.09      11.06       
H           110.48716   -27.52927   11.99521    
H           111.03      -26.79      10.59       
H           109.63      -27.86      10.54       
H           104.27      -22.11      12.52       
H           104.24094   -22.43691   10.82674    
H           105.35      -21.26      11.57       
N           105.94      -23.21      11.84       
C           107.1       -25.01      11.89       
C           105.91      -24.47      12.37       
C           112.38      -22.98      9.16        
C           111.53      -22.02      9.71        
S           111.82      -24.51      9.84        
H           109.71      -21.95      10.87       
H           111.59      -20.96      9.56        
C           110.5       -22.51      10.49       
C           110.4       -23.84      10.54       
C           114.48      -23.42      5.85        
C           114.52      -22.03      6.21        
S           113.57      -24.28      7.04        
H           113.6       -20.85      7.83        
H           114.89      -21.29      5.49        
C           113.81      -21.81      7.41        
C           113.3       -22.91      8.07        
C           115.39      -25.89      2.93        
C           115.82      -24.62      2.54        
S           114.67      -25.75      4.49        
H           115.87      -22.62      3.44        
H           116.32      -24.41      1.59        
C           115.56      -23.6       3.53        
C           114.9       -24.04      4.61        
C           114.54      -27.93      -1.28       
C           114.98      -28.11      0.04        
N           114.57      -26.61      -1.58       
C           114.96      -25.88      -0.45       
C           115.24      -29.04      1.1         
O           115.3       -30.2       1.21        
O           114.85      -24.72      -0.53       
C           115.63      -28.91      3.52        
C           114.84      -25.93      -2.86       
H           115.8798    -25.65272   -3.0333     
H           114.34      -24.97      -2.94       
H           114.5       -26.63      -3.6        
H           115.34      -28.35      4.39        
H           116.67592   -29.17855   3.66841     
H           115.1       -29.83      3.52        
N           115.4       -28.26      2.26        
C           115.08      -26.8       0.61        
C           115.25      -26.95      2.0         
C           113.71      -30.59      -4.04       
C           114.59      -31.14      -3.13       
S           113.38      -28.9       -3.62       
H           115.48      -30.52      -1.17       
H           115.02      -32.15      -3.31       
C           114.91      -30.23      -2.07       
C           114.39      -28.95      -2.19       
C           112.88      -32.66      -7.26       
C           111.84      -31.72      -7.13       
S           114.17      -32.43      -6.1        
H           111.46      -30.07      -5.66       
H           110.95      -31.71      -7.72       
C           112.14      -30.84      -6.0        
C           113.24      -31.24      -5.27       
C           112.71      -35.3       -10.17      
C           113.9       -35.39      -9.51       
S           111.77      -34.01      -9.46       
H           115.07      -34.43      -7.88       
H           114.68      -36.09      -9.68       
C           114.07      -34.5       -8.4        
C           113.0       -33.63      -8.25       
C           112.92      -37.89      -14.21      
C           112.15      -37.32      -13.23      
N           114.25      -37.63      -13.86      
C           114.38      -37.05      -12.54      
C           110.75      -37.09      -12.81      
O           109.68      -37.45      -13.23      
O           115.47      -36.85      -12.09      
C           109.74      -36.09      -10.76      
C           115.54      -37.71      -14.62      
H           115.78007   -36.72791   -15.02739   
H           115.34      -38.39      -15.44      
H           116.4       -38.14      -14.11      
H           109.49      -35.04      -10.69      
H           109.733     -36.48877   -9.74559    
H           108.89      -36.48      -11.3       
N           110.91      -36.31      -11.58      
C           113.02      -36.79      -12.22      
C           112.24      -36.03      -11.31      
C           112.03      -39.59      -17.62      
C           110.95      -39.64      -16.75      
S           113.3       -38.74      -16.86      
H           110.32      -38.93      -14.79      
H           109.98      -40.0       -17.14      
C           111.16      -39.0       -15.49      
C           112.4       -38.61      -15.33      
C           111.99      -40.89      -21.29      
C           113.25      -40.48      -20.97      
S           110.9       -40.56      -19.98      
H           114.35      -39.68      -19.34      
H           113.99      -40.49      -21.74      
C           113.41      -40.09      -19.67      
C           112.23      -39.99      -18.94      
C           109.67      -41.4       -24.29      
C           110.92      -41.19      -24.81      
S           109.62      -41.31      -22.53      
H           112.92      -40.66      -23.91      
H           111.09      -41.17      -25.89      
C           111.87      -40.94      -23.79      
C           111.36      -41.22      -22.54      
C           106.91      -40.45      -28.09      
C           107.09      -41.15      -26.95      
N           108.11      -39.77      -28.34      
C           109.07      -39.93      -27.3       
C           106.36      -42.02      -25.96      
O           105.23      -42.48      -25.87      
O           110.09      -39.39      -27.22      
C           107.12      -43.25      -23.97      
C           108.64      -39.32      -29.63      
H           109.13395   -40.17714   -30.08763   
H           109.3       -38.57      -29.32      
H           107.76      -39.03      -30.21      
H           107.44      -42.9       -22.94      
H           107.65583   -44.17244   -24.19383   
H           106.1       -43.51      -23.93      
N           107.37      -42.2       -24.97      
C           108.38      -40.83      -26.35      
C           108.51      -41.43      -25.19      
C           103.97      -40.34      -30.81      
C           103.83      -41.46      -29.96      
S           105.25      -39.41      -30.11      
H           104.85      -42.47      -28.2       
H           103.09      -42.23      -30.18      
C           104.81      -41.63      -28.9       
C           105.75      -40.6       -28.9       
C           102.8       -39.14      -34.32      
C           102.23      -40.41      -34.05      
S           103.78      -38.55      -33.0       
H           102.22      -41.76      -32.39      
H           101.69      -40.94      -34.74      
C           102.48      -40.77      -32.75      
C           103.38      -39.98      -32.06      
C           102.69      -37.48      -37.82      
C           103.49      -36.68      -36.97      
S           102.05      -38.87      -36.91      
H           104.38      -36.88      -34.97      
H           104.07      -35.88      -37.32      
C           103.72      -37.27      -35.72      
C           102.99      -38.43      -35.53      
C           102.1       -34.72      -41.72      
C           101.99      -35.92      -41.16      
N           102.91      -33.94      -40.85      
C           103.29      -34.65      -39.67      
C           101.42      -37.22      -41.39      
O           100.86      -37.78      -42.37      
O           103.91      -34.12      -38.75      
C           101.18      -39.22      -40.09      
C           103.8       -32.81      -41.28      
H           104.55551   -33.06864   -42.0219    
H           103.13      -32.04      -41.61      
H           104.25      -32.4       -40.38      
H           100.58      -39.35      -39.18      
H           101.95714   -39.98314   -40.04799   
H           100.46      -39.38      -40.93      
N           101.74      -37.87      -40.16      
C           102.58      -35.95      -39.85      
C           102.37      -37.11      -39.21      
C           100.36      -33.02      -44.91      
C           99.65       -34.09      -44.54      
S           101.51      -32.69      -43.7       
H           99.78       -35.73      -43.2       
H           98.88       -34.53      -45.18      
C           100.17      -34.78      -43.45      
C           101.29      -34.2       -42.86      
C           99.49       -31.35      -48.34      
C           100.48      -30.62      -47.75      
S           99.27       -32.74      -47.3       
H           101.62      -30.57      -45.77      
H           100.97      -29.82      -48.18      
C           100.91      -31.05      -46.45      
C           100.19      -32.16      -46.04      
C           96.84       -31.46      -51.25      
C           97.51       -30.29      -51.31      
S           97.63       -32.42      -50.01      
H           99.18       -29.26      -50.25      
H           97.31       -29.51      -51.99      
C           98.59       -30.19      -50.36      
C           98.76       -31.22      -49.53      
C           94.09       -31.04      -55.14      
C           94.24       -31.6       -53.93      
N           95.29       -30.54      -55.53      
C           96.16       -30.37      -54.4       
C           93.61       -32.35      -52.85      
O           92.61       -32.91      -52.74      
O           97.26       -29.82      -54.35      
C           94.2        -33.02      -50.47      
C           95.85       -30.88      -56.83      
H           96.74883    -31.49383   -56.77154   
H           95.97       -29.97      -57.43      
H           95.12       -31.49      -57.44      
H           94.45       -32.28      -49.72      
H           94.58422    -34.012     -50.23248   
H           93.08       -33.08      -50.4       
N           94.62       -32.53      -51.79      
C           95.49       -31.17      -53.37      
C           95.74       -31.77      -52.11      
C           91.03       -30.9       -57.77      
C           90.65       -31.55      -56.57      
S           92.65       -30.32      -57.57      
H           91.54       -32.0       -54.54      
H           89.67       -31.98      -56.44      
C           91.65       -31.54      -55.53      
C           92.89       -31.04      -55.99      
C           89.11       -30.29      -61.1       
C           88.28       -30.86      -60.22      
S           90.61       -30.02      -60.35      
H           88.27       -31.51      -58.08      
H           87.22       -31.14      -60.46      
C           88.82       -31.05      -58.91      
C           90.12       -30.72      -58.85      
C           88.64       -28.55      -64.57      
C           87.5        -28.41      -63.75      
S           89.83       -29.38      -63.62      
H           86.9        -28.76      -61.74      
H           86.56       -27.96      -64.14      
C           87.61       -28.93      -62.49      
C           88.79       -29.57      -62.28      
H           64.11       14.53       26.98       
H           88.63       -28.58      -65.67      
