392

C           54.89       5.39        0.48        
C           53.62       5.4         0.06        
N           55.53       6.51        -0.1        
C           54.52       7.41        -0.61       
C           52.51       4.5         0.02        
O           52.29       3.43        0.41        
O           54.72       8.59        -0.85       
C           50.09       4.88        -0.67       
C           56.94       6.51        -0.62       
H           56.92593    6.72104     -1.68928    
H           57.46       5.57        -0.54       
H           57.57       7.19        -0.04       
H           49.73       4.82        -1.75       
H           49.36358    5.40097     -0.0463     
H           50.19       3.75        -0.4        
N           51.44       5.35        -0.55       
C           53.3        6.6         -0.61       
C           51.99       6.57        -0.99       
C           56.94       3.02        2.89        
C           55.92       2.34        2.35        
S           56.98       4.66        2.36        
H           54.43       2.63        0.83        
H           55.63       1.26        2.5         
C           55.24       3.07        1.35        
C           55.68       4.39        1.18        
C           59.72       1.5         5.34        
C           59.69       2.87        5.45        
S           58.58       0.94        4.1         
H           58.67       4.53        4.46        
H           60.32       3.43        6.1         
C           58.77       3.44        4.52        
C           58.08       2.57        3.76        
C           62.29       -0.6        7.57        
C           61.63       -1.46       6.68        
S           61.57       0.97        7.38        
H           60.13       -1.18       5.02        
H           61.85       -2.5        6.62        
C           60.67       -0.78       5.83        
C           60.57       0.57        6.01        
C           64.11       -3.22       11.06       
C           64.13       -2.06       10.28       
N           63.08       -4.07       10.59       
C           62.35       -3.39       9.47        
C           64.86       -0.81       10.15       
O           65.86       -0.3        10.64       
O           61.48       -3.89       8.78        
C           64.82       0.88        8.44        
C           62.54       -5.33       11.07       
H           61.56507    -5.10061    11.50011    
H           63.06       -5.75       11.89       
H           62.48       -6.15       10.37       
H           64.08       1.62        8.05        
H           65.401      0.51228     7.59424     
H           65.48       1.4         9.22        
N           64.16       -0.24       9.09        
C           63.05       -2.11       9.36        
C           63.07       -0.92       8.66        
C           66.48       -4.25       14.1        
C           67.11       -3.47       13.12       
S           64.89       -4.54       13.43       
H           66.59       -2.49       11.22       
H           68.15       -3.1        13.26       
C           66.33       -3.09       12.03       
C           65.1        -3.56       12.03       
C           68.6        -5.56       17.03       
C           67.3        -5.35       17.53       
S           68.69       -5.25       15.31       
H           65.39       -4.53       16.74       
H           67.03       -5.46       18.56       
C           66.42       -4.87       16.53       
C           67.02       -4.85       15.29       
C           71.55       -5.76       19.62       
C           72.04       -6.17       18.43       
S           69.81       -5.65       19.46       
H           71.25       -6.68       16.4        
H           73.08       -6.47       18.31       
C           71.05       -6.3        17.41       
C           69.81       -5.8        17.76       
C           75.17       -7.1        22.29       
C           74.09       -6.3        22.17       
N           75.05       -8.15       21.35       
C           73.91       -7.91       20.53       
C           73.35       -5.26       22.83       
O           73.45       -4.58       23.82       
O           73.54       -8.66       19.61       
C           71.84       -3.46       21.81       
C           75.5        -9.54       21.42       
H           74.79882    -10.21341   21.91291    
H           76.36       -9.65       22.07       
H           75.78       -9.92       20.41       
H           70.88       -3.55       21.22       
H           72.49431    -2.68735    21.40628    
H           71.62       -3.23       22.87       
N           72.43       -4.88       21.8        
C           73.29       -6.73       21.07       
C           72.28       -5.84       20.8        
C           78.05       -6.64       25.0        
C           78.57       -7.1        23.81       
S           76.32       -6.28       24.89       
H           77.78       -7.54       21.83       
H           79.66       -7.26       23.72       
C           77.55       -7.23       22.86       
C           76.28       -6.96       23.25       
C           80.51       -5.49       27.85       
C           79.26       -5.74       28.52       
S           80.38       -5.74       26.14       
H           77.17       -6.2        27.73       
H           79.09       -5.49       29.57       
C           78.24       -6.05       27.55       
C           78.74       -6.27       26.22       
C           84.19       -4.34       28.46       
C           83.57       -4.23       29.66       
S           83.07       -4.8        27.27       
H           81.55       -4.54       30.54       
H           84.09       -3.8        30.56       
C           82.21       -4.65       29.66       
C           81.81       -5.08       28.42       
C           88.74       -4.17       29.91       
C           87.79       -3.86       28.95       
N           88.06       -4.71       30.98       
C           86.64       -4.79       30.71       
C           87.67       -3.39       27.63       
O           88.57       -3.18       26.89       
O           85.87       -5.4        31.43       
C           85.84       -3.01       25.92       
C           88.53       -5.51       32.16       
H           88.45243    -6.58895    32.02601    
H           88.0        -5.31       33.1        
H           89.55       -5.21       32.33       
H           84.81       -2.63       25.86       
H           85.85413    -3.69516    25.07238    
H           86.39       -2.12       25.67       
N           86.26       -3.53       27.25       
C           86.49       -4.3        29.37       
C           85.6        -4.13       28.32       
C           92.68       -3.62       29.91       
C           92.09       -2.69       29.1        
S           91.5        -4.67       30.62       
H           90.01       -2.24       28.38       
H           92.69       -2.04       28.38       
C           90.69       -2.81       29.08       
C           90.17       -3.83       29.85       
C           96.42       -4.67       29.33       
C           96.13       -5.1        30.57       
S           95.26       -3.55       28.79       
H           94.45       -5.01       31.98       
H           96.73       -5.75       31.12       
C           94.76       -4.66       30.97       
C           94.11       -3.98       30.02       
C           99.19       -6.26       27.04       
C           99.08       -4.93       26.84       
S           98.19       -6.65       28.39       
H           97.91       -3.23       27.29       
H           99.67       -4.33       26.11       
C           98.11       -4.27       27.53       
C           97.54       -5.05       28.5        
C           103.16      -7.51       24.57       
C           102.03      -7.86       25.24       
N           103.22      -6.13       24.76       
C           102.13      -5.58       25.5        
C           101.21      -9.0        25.53       
O           101.25      -10.24      25.21       
O           101.93      -4.39       25.6        
C           98.82       -9.18       26.12       
C           104.25      -5.2        24.3        
H           104.88083   -4.86603    25.12379    
H           103.91      -4.37       23.68       
H           104.95      -5.68       23.63       
H           98.03       -8.46       25.99       
H           98.59994    -9.68202    27.06215    
H           98.76       -9.83       25.25       
N           100.09      -8.46       26.16       
C           101.38      -6.76       25.85       
C           100.25      -7.15       26.48       
C           105.29      -9.72       22.07       
C           103.96      -10.01      22.05       
S           105.43      -8.37       23.07       
H           102.09      -9.61       23.15       
H           103.59      -10.87      21.46       
C           103.15      -9.4        23.03       
C           103.76      -8.38       23.55       
C           107.95      -11.21      19.82       
C           108.62      -10.74      20.86       
S           106.2       -11.07      19.97       
H           108.01      -9.67       22.76       
H           109.71      -10.75      21.0        
C           107.74      -10.12      21.78       
C           106.42      -10.26      21.47       
C           109.65      -13.64      17.43       
C           108.4       -13.42      16.98       
S           109.99      -12.58      18.8        
H           106.62      -12.09      17.51       
H           107.87      -14.0       16.23       
C           107.68      -12.38      17.66       
C           108.44      -11.89      18.69       
C           110.66      -17.82      15.26       
C           111.11      -16.74      15.93       
N           109.25      -17.81      15.38       
C           108.82      -16.53      15.98       
C           112.34      -16.11      16.43       
O           113.58      -16.36      16.52       
O           107.68      -16.3       16.14       
C           112.89      -13.85      17.44       
C           108.21      -18.82      15.03       
H           107.86661   -19.37629   15.9022     
H           108.66      -19.5       14.36       
H           107.36      -18.33      14.51       
H           112.88      -13.37      18.45       
H           113.14532   -13.15914   16.6365     
H           113.72      -14.47      17.78       
N           111.86      -14.82      17.03       
C           110.07      -15.89      16.32       
C           110.51      -14.76      16.99       
C           112.44      -21.07      13.62       
C           113.22      -20.47      14.58       
S           111.0       -20.05      13.54       
H           113.21      -18.76      15.91       
H           114.23      -20.81      14.88       
C           112.68      -19.27      15.17       
C           111.42      -18.98      14.85       
C           112.61      -24.14      11.1        
C           113.47      -24.42      12.12       
S           111.88      -22.58      11.36       
H           114.16      -23.39      13.97       
H           114.19      -25.26      12.08       
C           113.47      -23.35      13.14       
C           112.61      -22.33      12.91       
C           111.83      -25.27      7.5         
C           112.87      -26.07      7.92        
S           111.47      -24.01      8.68        
H           113.89      -26.41      9.76        
H           113.3       -26.83      7.24        
C           113.21      -25.82      9.24        
C           112.45      -24.76      9.84        
C           112.43      -25.64      2.73        
C           111.6       -25.46      3.85        
N           113.7       -25.86      3.29        
C           113.73      -25.76      4.75        
C           110.22      -25.15      4.16        
O           109.19      -25.08      3.63        
O           114.69      -25.83      5.46        
C           108.97      -24.68      6.3         
C           115.01      -25.97      2.67        
H           115.48137   -26.9413    2.81998     
H           115.71      -25.33      3.16        
H           115.07      -25.56      1.67        
H           109.19      -24.16      7.26        
H           108.3511    -25.52838   6.59207     
H           108.37      -24.01      5.68        
N           110.19      -25.06      5.58        
C           112.35      -25.52      5.05        
C           111.47      -25.23      6.09        
C           111.77      -26.15      -1.0        
C           110.69      -25.56      -0.36       
S           113.09      -26.25      0.09        
H           110.1       -24.65      1.56        
H           109.69      -25.7       -0.83       
C           110.89      -25.07      0.93        
C           112.05      -25.54      1.36        
C           112.41      -26.93      -4.7        
C           111.2       -27.49      -4.38       
S           113.12      -25.96      -3.39       
H           109.97      -27.63      -2.63       
H           110.43      -27.88      -5.06       
C           110.94      -27.28      -3.02       
C           111.9       -26.63      -2.3        
C           112.93      -26.44      -8.59       
C           114.06      -26.17      -7.95       
S           111.87      -27.2       -7.46       
H           114.8       -26.2       -5.82       
H           114.98      -25.88      -8.48       
C           114.0       -26.3       -6.52       
C           112.75      -26.68      -6.11       
C           114.0       -27.83      -13.06      
C           113.06      -27.29      -12.2       
N           115.15      -28.01      -12.37      
C           115.02      -27.45      -11.08      
C           111.72      -26.73      -12.13      
O           110.81      -26.55      -12.91      
O           116.02      -27.31      -10.36      
C           110.27      -26.08      -10.21      
C           116.05      -29.14      -12.48      
H           115.73138   -30.00171   -11.89346   
H           117.03      -28.86      -12.38      
H           116.07      -29.41      -13.49      
H           110.35      -25.53      -9.28       
H           109.53822   -26.88772   -10.19619   
H           109.92      -25.29      -10.98      
N           111.58      -26.45      -10.71      
C           113.68      -27.06      -10.9       
C           112.76      -26.61      -10.01      
C           113.77      -29.02      -16.85      
C           112.6       -28.47      -16.51      
S           114.88      -28.71      -15.59      
H           111.77      -27.6       -14.73      
H           111.7       -28.54      -17.19      
C           112.62      -28.05      -15.18      
C           113.75      -28.13      -14.46      
C           114.18      -31.06      -20.19      
C           115.28      -31.36      -19.37      
S           113.21      -29.84      -19.43      
H           115.97      -30.78      -17.3       
H           116.01      -32.08      -19.61      
C           115.27      -30.62      -18.13      
C           114.21      -29.74      -18.04      
C           113.04      -32.37      -23.78      
C           113.6       -33.39      -23.09      
S           113.03      -30.95      -22.7       
H           114.82      -33.6       -21.21      
H           113.75      -34.3       -23.58      
C           114.14      -32.98      -21.81      
C           113.8       -31.73      -21.4       
C           113.03      -34.16      -28.29      
C           112.63      -33.2       -27.39      
N           113.91      -34.95      -27.66      
C           114.11      -34.5       -26.32      
C           111.65      -32.16      -27.24      
O           110.85      -31.6       -27.96      
O           114.97      -35.05      -25.56      
C           110.93      -30.71      -25.38      
C           114.51      -36.22      -28.09      
H           115.58925   -36.10859   -28.19444   
H           114.29      -36.97      -27.38      
H           114.21      -36.6       -29.08      
H           111.38      -30.27      -24.47      
H           109.91732   -31.057     -25.17463   
H           110.81      -30.0       -26.13      
N           111.78      -31.79      -25.83      
C           113.19      -33.44      -26.1       
C           112.74      -32.47      -25.18      
C           111.68      -34.88      -31.89      
C           111.76      -33.5       -31.72      
S           112.33      -35.77      -30.57      
H           112.25      -32.18      -30.19      
H           111.41      -32.78      -32.46      
C           112.34      -33.22      -30.53      
C           112.63      -34.26      -29.67      
C           110.77      -37.63      -34.37      
C           110.32      -36.48      -35.05      
S           111.5       -37.33      -32.87      
H           110.28      -34.4       -34.58      
H           109.67      -36.43      -35.92      
C           110.58      -35.34      -34.23      
C           111.27      -35.61      -33.02      
C           110.55      -41.57      -34.98      
C           109.55      -40.95      -35.64      
S           111.43      -40.31      -34.11      
H           108.88      -38.86      -36.18      
H           108.84      -41.56      -36.29      
C           109.61      -39.48      -35.57      
C           110.55      -39.0       -34.78      
C           108.83      -46.02      -34.32      
C           109.94      -45.2       -34.39      
N           107.81      -45.27      -34.78      
C           108.16      -43.91      -35.06      
C           111.32      -45.1       -34.06      
O           112.04      -45.91      -33.45      
O           107.39      -43.05      -35.36      
C           113.08      -43.33      -33.99      
C           106.52      -45.7       -35.37      
H           106.52      -45.62652   -36.45752   
H           105.77      -45.1       -34.91      
H           106.17      -46.68      -35.18      
H           113.2       -42.29      -33.68      
H           113.75114   -43.63238   -34.79389   
H           113.42      -43.75      -33.01      
N           111.7       -43.73      -34.25      
C           109.58      -43.88      -34.75      
C           110.63      -42.97      -34.63      
C           108.23      -49.83      -33.26      
C           109.58      -49.53      -33.22      
S           107.39      -48.49      -34.0       
H           110.94      -47.79      -33.38      
H           110.41      -50.15      -32.85      
C           109.9       -48.17      -33.51      
C           108.82      -47.42      -33.91      
C           105.71      -52.67      -32.62      
C           106.96      -53.06      -32.28      
S           105.88      -51.08      -33.28      
H           108.93      -52.25      -32.02      
H           107.1       -54.05      -31.73      
C           107.94      -52.09      -32.36      
C           107.55      -50.98      -32.94      
C           102.4       -54.79      -32.44      
C           102.1       -53.49      -32.62      
S           104.12      -55.05      -32.51      
H           103.19      -51.52      -32.73      
H           101.08      -53.16      -32.64      
C           103.22      -52.63      -32.65      
C           104.42      -53.29      -32.57      
H           51.54       7.17        -1.75       
H           101.77      -55.56      -32.82      
