392

C           67.5        15.32       32.53       
C           67.12       15.19       31.21       
N           66.37       15.34       33.3        
C           65.22       15.23       32.41       
C           67.6        14.94       29.86       
O           68.65       14.87       29.33       
O           64.1        15.28       32.74       
C           66.49       15.16       27.56       
C           66.31       14.88       34.74       
H           65.95477    13.85781    34.87049    
H           65.86       15.6        35.42       
H           67.31       14.9        35.21       
H           65.71       15.76       27.18       
H           66.66464    14.24489    26.99417    
H           67.49       15.7        27.39       
N           66.44       14.97       29.0        
C           65.73       15.08       31.1        
C           65.32       15.01       29.78       
C           71.18       15.65       33.85       
C           71.14       14.92       32.67       
S           69.57       16.01       34.35       
H           69.57       14.29       31.26       
H           71.99       14.52       32.12       
C           69.85       14.75       32.15       
C           68.86       15.26       32.96       
C           74.4        15.41       35.96       
C           73.74       16.42       36.41       
S           73.53       14.52       34.74       
H           71.89       17.58       35.93       
H           74.04       17.03       37.23       
C           72.49       16.76       35.74       
C           72.27       15.73       34.81       
C           77.85       14.58       37.83       
C           77.33       13.44       37.18       
S           76.61       15.83       37.67       
H           75.73       12.91       35.76       
H           77.91       12.49       37.2        
C           76.17       13.68       36.39       
C           75.66       14.91       36.51       
C           81.99       16.51       39.12       
C           81.01       15.64       39.44       
N           81.77       16.84       37.8        
C           80.5        16.35       37.28       
C           80.48       14.8        40.5        
O           80.82       14.61       41.6        
O           80.01       16.66       36.16       
C           78.67       12.99       40.5        
C           82.47       17.8        36.95       
H           82.87709    17.32272    36.05861    
H           83.32       18.32       37.41       
H           81.86       18.6        36.48       
H           78.35       12.28       39.77       
H           77.81474    13.32061    41.08934    
H           79.45       12.51       41.13       
N           79.35       14.07       39.83       
C           80.1        15.54       38.35       
C           79.06       14.68       38.63       
C           85.09       18.09       41.13       
C           84.11       17.59       41.99       
S           84.48       17.71       39.5        
H           82.13       16.52       41.86       
H           84.27       17.49       43.01       
C           82.96       17.05       41.37       
C           82.98       17.09       39.98       
C           88.26       20.22       40.74       
C           88.17       20.02       42.04       
S           87.07       19.42       39.81       
H           86.79       18.79       43.31       
H           88.79       20.46       42.82       
C           87.05       19.16       42.33       
C           86.34       18.76       41.25       
C           90.82       22.71       39.06       
C           89.82       22.48       38.13       
S           90.34       22.05       40.6        
H           88.16       21.11       37.96       
H           89.93       22.81       37.14       
C           88.85       21.57       38.59       
C           88.99       21.16       39.93       
C           94.1        24.87       36.16       
C           93.66       24.62       37.45       
N           93.05       24.62       35.3        
C           91.89       24.14       35.99       
C           94.1        24.68       38.86       
O           94.98       25.23       39.42       
O           90.8        24.05       35.39       
C           92.95       24.06       41.0        
C           93.03       24.42       33.87       
H           93.21681    23.3638     33.676      
H           93.67       25.18       33.36       
H           92.05       24.61       33.45       
H           92.52       23.05       41.29       
H           92.37802    24.93264    41.31532    
H           93.99       24.19       41.29       
N           93.02       23.92       39.52       
C           92.38       24.02       37.41       
C           92.02       23.43       38.66       
C           97.35       26.77       34.85       
C           97.59       26.29       36.11       
S           95.65       26.45       34.4        
H           96.52       24.97       37.52       
H           98.52       26.49       36.62       
C           96.55       25.47       36.55       
C           95.42       25.35       35.77       
C           99.48       28.7        32.21       
C           99.7        29.34       33.41       
S           98.3        27.46       32.35       
H           99.16       28.97       35.49       
H           100.37      30.18       33.53       
C           99.0        28.71       34.46       
C           98.18       27.67       34.03       
C           101.2       30.2        28.94       
C           100.75      28.9        28.64       
S           100.81      30.53       30.6        
H           99.52       27.27       29.55       
H           100.93      28.46       27.67       
C           100.0       28.27       29.69       
C           100.06      28.97       30.89       
C           104.55      31.0        25.53       
C           103.76      31.47       26.55       
N           104.24      29.68       25.46       
C           103.19      29.26       26.34       
C           103.45      32.74       27.26       
O           103.86      33.91       27.21       
O           102.88      28.11       26.52       
C           101.94      33.34       29.13       
C           104.42      28.68       24.39       
H           103.49816   28.62283    23.81117    
H           104.75      27.75       24.85       
H           105.16      29.1        23.7        
H           101.92      32.95       30.19       
H           100.95958   33.69715    28.81486    
H           102.61      34.22       29.07       
N           102.53      32.28       28.32       
C           102.86      30.45       27.06       
C           102.2       30.95       28.17       
C           107.77      32.55       23.9        
C           106.95      33.56       24.25       
S           107.03      31.02       24.19       
H           105.07      33.73       25.2        
H           107.21      34.62       24.2        
C           105.76      33.06       24.78       
C           105.55      31.71       24.78       
C           111.33      32.0        22.31       
C           111.34      33.24       22.9        
S           109.74      31.33       22.55       
H           109.68      34.61       23.75       
H           112.05      33.97       22.65       
C           110.03      33.59       23.48       
C           109.13      32.6        23.51       
C           112.9       29.16       20.03       
C           113.79      30.24       20.1        
S           111.42      29.7        20.91       
H           113.98      32.14       21.27       
H           114.79      30.08       19.74       
C           113.39      31.32       20.96       
C           112.2       31.16       21.49       
C           114.52      26.45       16.45       
C           113.58      26.63       17.43       
N           115.29      27.54       16.27       
C           114.94      28.47       17.25       
C           112.48      25.95       18.11       
O           112.02      24.88       18.07       
O           115.32      29.59       17.35       
C           110.95      26.58       19.93       
C           115.77      28.0        15.02       
H           115.14622   28.78499    14.59246    
H           115.87      27.19       14.27       
H           116.75      28.38       15.12       
H           110.49      27.48       20.28       
H           111.23274   25.97732    20.7931     
H           110.29      26.13       19.2        
N           112.11      26.93       19.12       
C           113.88      27.88       18.07       
C           113.0       28.04       19.09       
C           115.28      23.18       14.37       
C           113.94      23.19       14.84       
S           116.05      24.55       14.99       
H           112.48      24.54       15.87       
H           113.28      22.33       14.73       
C           113.53      24.38       15.54       
C           114.58      25.23       15.66       
C           116.71      20.01       12.51       
C           117.77      20.71       13.02       
S           115.25      20.86       12.73       
H           118.04      22.45       14.28       
H           118.81      20.37       12.97       
C           117.36      21.86       13.68       
C           116.03      22.12       13.66       
C           116.16      17.37       9.66        
C           117.24      17.06       10.39       
S           115.51      18.81       10.36       
H           118.6       17.93       11.9        
H           117.84      16.28       10.03       
C           117.63      17.95       11.41       
C           116.75      18.95       11.58       
C           116.38      14.35       5.99        
C           115.69      15.41       6.58        
N           117.36      13.9        6.84        
C           117.36      14.63       8.04        
C           114.77      16.42       6.31        
O           114.14      16.72       5.3         
O           118.24      14.31       8.87        
C           113.52      17.84       7.94        
C           118.15      12.76       6.64        
H           117.55008   11.86012    6.7757      
H           118.93      12.64       7.44        
H           118.58      12.74       5.61        
H           113.58      18.88       8.23        
H           112.79387   17.32955    8.57267     
H           113.11      18.14       6.96        
N           114.69      17.12       7.6         
C           116.34      15.65       7.84        
C           115.75      16.71       8.41        
C           116.22      13.11       2.26        
C           115.01      13.48       2.71        
S           117.39      13.35       3.51        
H           114.14      14.5        4.46        
H           114.11      13.61       2.05        
C           115.01      14.06       4.0         
C           116.12      13.76       4.71        
C           117.12      12.19       -1.45       
C           118.22      11.95       -0.74       
S           115.85      12.81       -0.48       
H           118.76      12.23       1.4         
H           119.11      11.45       -1.13       
C           118.01      12.22       0.68        
C           116.78      12.69       0.98        
C           115.7       11.29       -4.91       
C           117.02      11.35       -5.04       
S           115.21      11.6        -3.28       
H           118.69      11.77       -3.8        
H           117.5       10.99       -5.93       
C           117.65      11.69       -3.84       
C           116.81      11.93       -2.81       
C           114.6       10.83       -9.56       
C           114.22      10.67       -8.29       
N           115.92      11.41       -9.54       
C           116.32      11.63       -8.18       
C           113.12      10.32       -7.46       
O           111.98      9.82        -7.69       
O           117.32      12.33       -7.92       
C           112.52      10.74       -5.06       
C           117.0       11.38       -10.43      
H           117.64486   10.53728    -10.18085   
H           117.68      12.25       -10.3       
H           116.74      11.36       -11.56      
H           112.69      11.61       -4.49       
H           112.48336   9.89005     -4.37857    
H           111.6       10.75       -5.6        
N           113.52      10.64       -6.11       
C           115.24      11.11       -7.36       
C           114.83      11.06       -6.04       
C           112.64      10.33       -12.91      
C           112.09      9.56        -11.92      
S           113.98      11.25       -12.34      
H           112.79      8.95        -9.89       
H           111.13      9.08        -11.97      
C           112.92      9.55        -10.78      
C           113.89      10.5        -10.75      
C           111.35      9.74        -16.47      
C           112.06      10.89       -16.47      
S           111.1       9.18        -14.86      
H           113.21      12.19       -15.02      
H           112.36      11.41       -17.39      
C           112.51      11.35       -15.21      
C           112.16      10.4        -14.22      
C           109.43      7.07        -18.59      
C           109.83      8.06        -19.42      
S           109.88      7.57        -17.02      
H           111.02      9.95        -19.34      
H           109.54      8.09        -20.47      
C           110.66      9.02        -18.8       
C           110.7       8.97        -17.48      
C           108.0       3.76        -21.79      
C           108.04      4.18        -20.52      
N           108.77      4.61        -22.54      
C           109.27      5.7         -21.7       
C           107.65      3.83        -19.18      
O           107.06      2.86        -18.76      
O           109.97      6.55        -22.08      
C           107.89      4.88        -17.01      
C           109.36      4.52        -23.9       
H           110.40133   4.19801     -23.89315   
H           109.19      5.43        -24.45      
H           108.7       3.82        -24.45      
H           107.81      5.86        -16.57      
H           108.40573   4.11004     -16.43616   
H           106.87      4.37        -16.91      
N           108.22      4.89        -18.4       
C           108.86      5.39        -20.38      
C           108.94      5.84        -19.09      
C           106.73      0.32        -23.31      
C           106.0       0.6         -22.18      
S           107.8       1.62        -23.66      
H           105.96      2.29        -20.69      
H           105.31      -0.15       -21.76      
C           106.37      1.85        -21.59      
C           107.35      2.55        -22.23      
C           107.15      -2.61       -25.85      
C           105.92      -2.65       -25.39      
S           108.06      -1.38       -25.05      
H           104.79      -1.63       -23.82      
H           105.21      -3.36       -25.71      
C           105.68      -1.68       -24.38      
C           106.7       -0.82       -24.2       
C           107.99      -4.43       -29.25      
C           109.01      -3.46       -28.99      
S           106.96      -4.5        -27.83      
H           109.42      -1.85       -27.33      
H           109.81      -3.22       -29.73      
C           108.88      -2.78       -27.71      
C           107.77      -3.23       -26.97      
C           107.94      -4.99       -34.02      
C           107.5       -5.33       -32.76      
N           108.81      -3.93       -33.87      
C           109.0       -3.56       -32.5       
C           106.59      -6.23       -32.12      
O           105.93      -7.18       -32.56      
O           109.81      -2.73       -32.16      
C           106.21      -6.95       -29.78      
C           109.62      -3.27       -34.98      
H           109.03279   -2.50592    -35.48938   
H           110.6       -2.79       -34.6       
H           109.9       -4.04       -35.7       
H           105.74      -6.49       -28.88      
H           107.02503   -7.61308    -29.4899    
H           105.5       -7.55       -30.32      
N           106.76      -5.96       -30.75      
C           108.13      -4.52       -31.75      
C           107.64      -4.93       -30.54      
C           106.97      -7.21       -37.25      
C           105.87      -6.92       -36.45      
S           108.37      -6.41       -36.49      
H           105.49      -5.76       -34.53      
H           104.89      -7.39       -36.68      
C           106.19      -6.03       -35.31      
C           107.48      -5.56       -35.26      
C           107.25      -10.51      -39.21      
C           107.6       -9.56       -40.11      
S           106.76      -9.81       -37.7       
H           107.57      -7.32       -40.13      
H           107.93      -9.86       -41.17      
C           107.43      -8.23       -39.57      
C           106.99      -8.25       -38.25      
C           107.11      -14.34      -39.91      
C           107.19      -14.14      -38.55      
S           106.81      -12.86      -40.7       
H           107.75      -12.44      -37.24      
H           107.18      -14.95      -37.86      
C           107.39      -12.8       -38.22      
C           107.14      -11.95      -39.25      
C           108.14      -19.1       -39.97      
C           107.37      -18.08      -40.52      
N           108.73      -18.63      -38.82      
C           108.43      -17.2       -38.64      
C           106.43      -17.71      -41.63      
O           106.01      -18.27      -42.63      
O           108.96      -16.54      -37.79      
C           105.14      -15.61      -42.19      
C           109.07      -19.47      -37.67      
H           108.46602   -19.16801   -36.81436   
H           110.15      -19.4       -37.44      
H           108.9       -20.54      -37.89      
H           105.29      -14.55      -42.38      
H           104.15572   -15.81942   -41.77116   
H           105.12      -16.11      -43.2       
N           106.25      -16.26      -41.49      
C           107.61      -16.85      -39.83      
C           107.05      -15.73      -40.46      
C           109.12      -22.68      -41.11      
C           107.93      -22.32      -41.7       
S           109.74      -21.31      -40.29      
H           106.6       -20.58      -41.78      
H           107.44      -22.85      -42.51      
C           107.51      -21.03      -41.36      
C           108.27      -20.43      -40.46      
C           110.66      -26.22      -41.8       
C           111.65      -25.45      -41.09      
S           109.24      -25.27      -41.94      
H           111.87      -23.37      -40.34      
H           112.69      -25.77      -40.95      
C           111.24      -24.12      -40.85      
C           109.98      -23.86      -41.25      
C           111.98      -29.35      -43.68      
C           110.59      -29.35      -43.7       
S           112.48      -27.9       -42.83      
H           108.84      -28.0       -43.09      
H           110.13      -30.1       -44.36      
C           109.92      -28.24      -43.02      
C           110.85      -27.43      -42.5       
H           64.33       14.78       29.38       
H           112.64      -30.17      -43.9       
