392

C           74.71       27.42       9.41        
C           73.61       27.47       10.12       
N           75.77       27.22       10.29       
C           75.3        26.92       11.55       
C           72.18       27.78       10.07       
O           71.38       28.38       9.24        
O           76.03       26.69       12.52       
C           70.33       27.76       11.74       
C           77.17       27.5        10.1        
H           77.42954    28.51654    10.39559    
H           77.38       27.44       9.0         
H           77.8        26.74       10.65       
H           70.26       28.56       12.44       
H           69.78951    26.87742    12.08208    
H           69.78       28.0        10.81       
N           71.73       27.44       11.38       
C           73.86       26.96       11.4        
C           72.68       26.83       12.13       
C           75.17       27.24       5.45        
C           74.13       28.16       5.79        
S           75.85       26.59       6.88        
H           73.36       29.03       7.7         
H           73.56       28.79       5.1         
C           74.04       28.3        7.23        
C           74.89       27.6        7.99        
C           77.14       26.54       2.18        
C           75.82       26.71       1.88        
S           77.33       26.64       3.94        
H           73.87       27.0        2.89        
H           75.4        26.68       0.86        
C           74.97       26.9        3.0         
C           75.62       26.85       4.17        
C           79.89       25.47       -0.37       
C           80.37       26.54       0.32        
S           78.23       25.3        0.01        
H           79.76       27.92       1.9         
H           81.43       26.89       0.22        
C           79.49       27.07       1.32        
C           78.27       26.48       1.29        
C           82.51       25.37       -4.26       
C           81.66       24.72       -3.43       
N           82.71       26.68       -3.78       
C           82.09       26.84       -2.49       
C           80.9        23.47       -3.27       
O           80.77       22.44       -3.97       
O           82.21       27.88       -1.88       
C           79.42       22.61       -1.44       
C           83.19       27.82       -4.5        
H           84.07921    28.23259    -4.02338    
H           82.53       28.68       -4.6        
H           83.33       27.56       -5.55       
H           78.54       22.98       -0.9        
H           79.92604    21.8654     -0.82552    
H           78.94       22.08       -2.29       
N           80.26       23.67       -1.98       
C           81.36       25.53       -2.33       
C           80.49       24.9        -1.5        
C           83.7        24.52       -7.84       
C           82.5        23.89       -7.65       
S           84.34       25.2        -6.41       
H           81.04       23.73       -6.07       
H           82.03       23.35       -8.47       
C           81.97       24.19       -6.41       
C           82.81       24.92       -5.61       
C           85.72       24.14       -11.05      
C           85.98       25.33       -10.51      
S           84.65       23.17       -10.06      
H           85.33       26.44       -8.68       
H           86.72       26.0        -10.96      
C           85.26       25.53       -9.32       
C           84.41       24.56       -9.04       
C           87.91       22.44       -13.83      
C           86.55       22.04       -13.99      
S           87.98       23.53       -12.47      
H           84.7        22.36       -12.84      
H           86.15       21.22       -14.65      
C           85.73       22.62       -12.99      
C           86.33       23.48       -12.17      
C           90.28       18.91       -16.07      
C           90.24       20.15       -15.56      
N           89.03       18.43       -15.99      
C           88.2        19.3        -15.1       
C           91.09       21.29       -15.43      
O           92.24       21.63       -15.65      
O           87.14       18.94       -14.74      
C           90.6        23.69       -14.87      
C           88.33       17.54       -16.84      
H           87.96779    18.05845    -17.72776   
H           87.46       17.1        -16.35      
H           89.09       16.78       -17.12      
H           90.15       24.29       -14.08      
H           90.40426    24.09546    -15.86267   
H           91.67       23.7        -14.76      
N           90.28       22.25       -14.72      
C           89.0        20.45       -14.98      
C           89.02       21.74       -14.43      
C           92.9        17.69       -18.69      
C           92.47       16.57       -18.1       
S           92.13       19.14       -18.11      
H           91.2        16.2        -16.28      
H           92.86       15.57       -18.27      
C           91.64       16.94       -16.97      
C           91.38       18.29       -16.82      
C           95.74       18.25       -21.38      
C           95.12       17.09       -21.65      
S           94.94       19.04       -20.05      
H           93.47       15.87       -20.65      
H           95.42       16.39       -22.5       
C           93.95       16.83       -20.77      
C           93.84       17.72       -19.83      
C           98.6        19.65       -23.66      
C           98.68       20.33       -22.48      
S           97.45       18.27       -23.48      
H           97.7        20.23       -20.48      
H           99.45       21.11       -22.38      
C           97.75       19.82       -21.49      
C           96.91       18.82       -21.92      
C           103.0       20.59       -25.44      
C           101.7       20.22       -25.72      
N           103.15      20.7        -24.06      
C           101.89      20.5        -23.42      
C           100.77      19.82       -26.79      
O           100.79      19.74       -28.02      
O           101.73      20.59       -22.23      
C           98.24       19.57       -26.88      
C           104.31      20.36       -23.31      
H           104.44169   19.27878    -23.26841   
H           104.39      20.82       -22.34      
H           105.15      20.71       -23.87      
H           97.41       20.23       -26.5       
H           97.87396    18.5817     -27.15819   
H           98.38       20.11       -27.83      
N           99.47       19.66       -26.07      
C           100.94      20.18       -24.51      
C           99.63       19.76       -24.7       
C           106.02      21.51       -27.82      
C           105.08      20.73       -28.49      
S           105.48      21.8        -26.22      
H           103.17      19.72       -28.09      
H           105.26      20.43       -29.5       
C           103.92      20.33       -27.75      
C           104.05      20.69       -26.42      
C           109.49      22.11       -29.36      
C           109.23      23.15       -28.55      
S           108.14      21.05       -29.47      
H           107.62      23.57       -27.08      
H           109.87      24.02       -28.48      
C           107.98      22.97       -27.91      
C           107.32      21.83       -28.25      
C           112.39      21.08       -31.81      
C           112.49      22.41       -31.5       
S           111.12      20.33       -30.8       
H           111.47      23.87       -30.25      
H           113.12      23.1        -32.04      
C           111.53      22.83       -30.55      
C           110.61      21.91       -30.25      
C           114.33      20.47       -36.23      
C           114.01      19.93       -34.99      
N           114.31      21.87       -36.0       
C           113.68      22.21       -34.78      
C           113.85      18.64       -34.31      
O           114.04      17.45       -34.63      
O           113.53      23.36       -34.39      
C           113.28      18.11       -32.01      
C           115.27      22.83       -36.63      
H           116.19463   22.8161     -36.05297   
H           114.88      23.88       -36.64      
H           115.39      22.67       -37.69      
H           112.57      18.33       -31.2       
H           114.26437   17.96836    -31.56385   
H           112.95      17.19       -32.5       
N           113.36      19.08       -33.04      
C           113.49      20.98       -34.07      
C           113.03      20.4        -32.93      
C           115.7       18.78       -39.56      
C           115.82      17.89       -38.55      
S           115.0       20.3        -39.05      
H           115.5       17.92       -36.37      
H           116.27      16.87       -38.61      
C           115.33      18.45       -37.32      
C           114.84      19.74       -37.39      
C           116.82      17.29       -42.98      
C           116.44      18.58       -43.23      
S           116.59      16.96       -41.33      
H           115.81      20.41       -42.17      
H           116.46      18.99       -44.22      
C           116.12      19.36       -42.07      
C           116.09      18.59       -40.92      
C           117.3       14.06       -45.08      
C           117.99      15.05       -45.66      
S           116.73      14.63       -43.52      
H           118.32      17.21       -45.49      
H           118.43      14.95       -46.67      
C           117.99      16.31       -45.03      
C           117.25      16.27       -43.88      
C           117.89      10.41       -48.12      
C           117.25      10.95       -47.06      
N           118.96      11.28       -48.43      
C           118.92      12.48       -47.64      
C           116.13      10.77       -46.14      
O           115.25      9.94        -46.2       
O           119.74      13.31       -47.74      
C           114.71      12.31       -44.76      
C           120.1       11.07       -49.25      
H           120.01471   11.75229    -50.09576   
H           120.1       10.03       -49.7       
H           121.06      11.2        -48.73      
H           114.53      13.37       -44.68      
H           114.64745   11.79574    -43.80098   
H           113.95      11.99       -45.5       
N           115.97      12.0        -45.45      
C           117.81      12.24       -46.73      
C           117.11      12.76       -45.66      
C           116.88      7.05        -49.92      
C           116.61      6.99        -48.57      
S           117.65      8.54        -50.27      
H           116.84      8.17        -46.79      
H           116.18      6.08        -48.07      
C           116.98      8.15        -47.84      
C           117.63      9.09        -48.6       
C           116.77      4.03        -52.35      
C           116.95      5.21        -53.09      
S           116.57      4.46        -50.68      
H           117.24      7.35        -52.74      
H           117.05      5.26        -54.12      
C           117.02      6.41        -52.28      
C           116.8       6.15        -51.01      
C           116.73      0.61        -54.24      
C           117.27      0.46        -53.02      
S           116.32      2.27        -54.38      
H           117.55      1.59        -51.08      
H           117.66      -0.5        -52.7       
C           117.16      1.56        -52.09      
C           116.72      2.67        -52.72      
C           118.69      -2.91       -56.82      
C           117.71      -1.95       -56.74      
N           119.65      -2.54       -55.9       
C           119.06      -1.66       -54.92      
C           116.5       -1.42       -57.36      
O           115.96      -1.51       -58.42      
O           119.62      -1.23       -53.98      
C           114.71      0.27        -56.73      
C           121.08      -3.05       -55.79      
H           121.24056   -3.57358    -54.84756   
H           121.81      -2.21       -55.87      
H           121.41      -3.67       -56.64      
H           114.71      1.34        -56.35      
H           113.86463   -0.23722    -56.26505   
H           114.58      0.32        -57.8       
N           115.99      -0.45       -56.43      
C           117.81      -1.21       -55.52      
C           116.82      -0.33       -55.33      
C           119.49      -5.58       -59.59      
C           118.54      -4.77       -60.03      
S           120.01      -5.12       -58.03      
H           117.31      -3.1        -59.2       
H           118.06      -4.9        -61.04      
C           118.18      -3.77       -59.09      
C           118.88      -3.79       -57.92      
C           121.22      -7.95       -62.09      
C           121.82      -8.15       -60.85      
S           120.0       -6.8        -61.98      
H           121.79      -7.07       -58.85      
H           122.7       -8.77       -60.78      
C           121.35      -7.28       -59.79      
C           120.25      -6.57       -60.24      
C           121.45      -9.94       -65.43      
C           121.52      -8.59       -65.68      
S           121.47      -10.23      -63.8       
H           121.08      -6.74       -64.46      
H           121.73      -8.23       -66.65      
C           121.32      -7.81       -64.48      
C           121.32      -8.57       -63.38      
C           121.12      -11.37      -69.94      
C           121.08      -11.74      -68.63      
N           122.15      -10.41      -70.05      
C           122.41      -9.91       -68.76      
C           120.47      -12.64      -67.65      
O           119.75      -13.61      -67.79      
O           123.17      -8.96       -68.66      
C           120.01      -12.72      -65.29      
C           123.15      -10.4       -71.08      
H           124.12072   -10.73282   -70.71251   
H           123.25      -9.38       -71.53      
H           122.77      -11.06      -71.9       
H           119.49      -12.01      -64.65      
H           120.63208   -13.36353   -64.66792   
H           119.23      -13.24      -65.74      
N           120.74      -12.1       -66.35      
C           121.74      -10.72      -67.82      
C           121.41      -10.89      -66.49      
C           119.25      -12.61      -73.2       
C           119.13      -13.54      -72.26      
S           119.99      -11.16      -72.55      
H           119.79      -13.79      -70.08      
H           118.48      -14.39      -72.41      
C           119.85      -13.2       -71.02      
C           120.45      -12.0       -71.05      
C           117.09      -12.7       -76.36      
C           117.81      -11.52      -76.42      
S           117.41      -13.6       -74.9       
H           119.37      -10.58      -75.25      
H           117.75      -10.86      -77.25      
C           118.69      -11.38      -75.33      
C           118.63      -12.45      -74.45      
C           114.3       -13.71      -78.68      
C           114.66      -14.86      -78.0       
S           115.2       -12.29      -78.31      
H           116.17      -15.24      -76.47      
H           114.09      -15.81      -77.99      
C           115.75      -14.54      -77.16      
C           116.18      -13.24      -77.27      
C           111.7       -15.39      -82.31      
C           112.0       -14.34      -81.45      
N           112.42      -16.47      -81.79      
C           113.27      -16.1       -80.68      
C           111.71      -12.94      -81.24      
O           111.09      -12.12      -81.81      
O           114.07      -16.91      -80.19      
C           112.05      -11.39      -79.36      
C           112.13      -17.86      -82.04      
H           111.23664   -18.20137   -81.51706   
H           112.07      -18.08      -83.12      
H           113.01      -18.49      -81.76      
H           112.97      -10.86      -79.1       
H           111.31234   -11.50349   -78.5656    
H           111.45      -10.71      -79.94      
N           112.39      -12.59      -80.01      
C           113.0       -14.71      -80.49      
C           113.26      -13.63      -79.7       
C           108.99      -15.81      -85.28      
C           108.59      -14.77      -84.48      
S           110.46      -16.51      -84.66      
H           109.38      -13.75      -82.75      
H           107.75      -14.15      -84.8       
C           109.53      -14.54      -83.44      
C           110.57      -15.44      -83.29      
C           107.25      -16.17      -88.63      
C           107.7       -17.4       -88.32      
S           107.7       -15.01      -87.48      
H           108.69      -18.36      -86.65      
H           107.34      -18.29      -88.82      
C           108.27      -17.46      -87.05      
C           108.37      -16.26      -86.43      
C           105.11      -15.32      -91.95      
C           104.8       -14.52      -90.9       
S           106.22      -16.5       -91.27      
H           105.42      -14.02      -88.87      
H           104.05      -13.74      -91.05      
C           105.58      -14.65      -89.73      
C           106.43      -15.7       -89.75      
C           101.02      -14.63      -94.42      
C           102.32      -15.12      -94.46      
N           100.7       -14.36      -93.12      
C           101.89      -14.45      -92.29      
C           103.42      -15.62      -95.29      
O           103.46      -15.86      -96.48      
O           101.85      -14.22      -91.11      
C           105.81      -16.08      -95.03      
C           99.38       -14.59      -92.46      
H           99.40875    -15.56744   -91.97846   
H           98.53       -14.65      -93.08      
H           99.18       -13.81      -91.77      
H           106.37      -16.68      -94.27      
H           106.39738   -15.23389   -95.38662   
H           105.51      -16.73      -95.86      
N           104.56      -15.76      -94.39      
C           102.9       -15.01      -93.14      
C           104.26      -15.41      -93.08      
C           98.1        -14.2       -97.13      
C           98.89       -15.32      -97.44      
S           98.87       -13.33      -95.88      
H           100.72      -16.34      -96.67      
H           98.74       -15.9       -98.37      
C           99.99       -15.54      -96.52      
C           100.06      -14.64      -95.46      
C           94.69       -13.96      -99.09      
C           94.85       -12.86      -98.32      
S           96.12       -14.96      -98.99      
H           96.33       -11.92      -97.12      
H           94.1        -12.07      -98.21      
C           96.14       -12.76      -97.71      
C           96.92       -13.84      -97.81      
C           92.14       -15.7       -101.49     
C           91.76       -14.45      -101.23     
S           93.51       -15.96      -100.48     
H           92.44       -12.57      -100.26     
H           90.82       -14.07      -101.6      
C           92.55       -13.67      -100.42     
C           93.57       -14.35      -99.88      
H           72.41       26.01       12.83       
H           91.83       -16.17      -102.41     
