392

C           81.5        28.73       24.49       
C           80.24       28.73       25.06       
N           82.21       27.86       25.25       
C           81.37       27.2        26.2        
C           78.93       29.38       24.89       
O           78.43       30.3        24.21       
O           81.71       26.29       27.0        
C           76.72       29.39       26.13       
C           83.56       28.0        25.61       
H           83.61773    28.52677    26.56251    
H           84.09       28.57       24.84       
H           84.07       27.03       25.69       
H           76.57       30.26       26.72       
H           76.07021    28.59896    26.50433    
H           76.39       29.64       25.13       
N           78.08       28.84       25.92       
C           80.04       27.79       26.06       
C           78.79       27.9        26.66       
C           82.89       29.86       21.12       
C           81.88       30.7        21.48       
S           83.29       28.79       22.36       
H           80.41       30.84       23.0        
H           81.57       31.46       20.84       
C           81.3        30.33       22.65       
C           81.98       29.37       23.34       
C           83.85       30.41       17.38       
C           84.27       29.19       17.79       
S           83.14       31.28       18.7        
H           84.41       28.01       19.73       
H           84.86       28.44       17.22       
C           84.11       28.94       19.19       
C           83.46       29.96       19.82       
C           84.37       31.43       13.62       
C           83.58       32.38       14.18       
S           84.62       30.04       14.73       
H           82.87       32.84       16.21       
H           83.13       33.23       13.65       
C           83.46       32.15       15.59       
C           83.93       30.95       16.05       
C           83.9        32.47       8.89        
C           84.63       31.78       9.86        
N           82.8        33.07       9.48        
C           82.73       32.75       10.86       
C           85.85       31.04       10.22       
O           86.75       30.59       9.49        
O           81.85       33.23       11.64       
C           86.96       30.37       12.32       
C           81.76       33.9        8.88        
H           80.83253    33.33087    8.81676     
H           82.14       34.23       7.94        
H           81.54       34.78       9.51        
H           86.85       29.81       13.19       
H           87.61945    31.17281    12.64973    
H           87.63       29.83       11.59       
N           85.79       30.84       11.59       
C           83.9        31.91       11.16       
C           84.64       31.37       12.2        
C           84.76       33.01       5.05        
C           85.54       32.04       5.52        
S           83.65       33.58       6.21        
H           85.81       31.09       7.51        
H           86.13       31.49       4.9         
C           85.34       31.82       6.93        
C           84.29       32.55       7.48        
C           85.23       34.16       1.43        
C           84.23       34.93       1.97        
S           85.78       32.94       2.52        
H           83.21       35.16       3.9         
H           83.63       35.66       1.44        
C           84.02       34.68       3.34        
C           84.79       33.67       3.75        
C           86.29       34.61       -2.2        
C           86.44       33.27       -1.9        
S           85.82       35.48       -0.85       
H           86.33       31.95       -0.18       
H           86.86       32.56       -2.59       
C           86.17       32.94       -0.58       
C           85.7        34.05       0.09        
C           88.73       35.49       -6.32       
C           87.77       35.84       -5.36       
N           89.19       34.21       -5.83       
C           88.54       33.84       -4.61       
C           86.85       36.88       -5.02       
O           86.7        38.01       -5.46       
O           88.83       32.92       -3.84       
C           85.11       37.29       -3.4        
C           90.29       33.44       -6.22       
H           91.15121    33.50302    -5.55484    
H           90.68       33.73       -7.19       
H           89.94       32.4        -6.26       
H           85.08       37.39       -2.36       
H           84.16226    36.83094    -3.68136    
H           85.13       38.26       -3.88       
N           86.27       36.53       -3.79       
C           87.59       34.87       -4.36       
C           86.76       35.29       -3.36       
C           91.07       37.42       -8.83       
C           90.18       38.33       -8.3        
S           90.58       35.8        -8.37       
H           88.53       38.33       -6.83       
H           90.34       39.35       -8.5        
C           89.24       37.77       -7.4        
C           89.43       36.39       -7.23       
C           93.72       38.23       -11.6       
C           94.16       37.18       -10.88      
S           92.33       38.89       -10.81      
H           93.42       35.87       -9.33       
H           95.09       36.64       -11.06      
C           93.28       36.8        -9.87       
C           92.17       37.62       -9.69       
C           95.67       39.74       -14.74      
C           94.36       40.09       -14.81      
S           95.86       38.64       -13.35      
H           92.5        39.82       -13.66      
H           93.94       40.76       -15.56      
C           93.59       39.56       -13.78      
C           94.23       38.82       -12.83      
C           97.21       40.89       -19.18      
C           97.51       40.52       -17.87      
N           95.86       40.82       -19.34      
C           95.2        40.55       -18.08      
C           98.59       40.24       -16.96      
O           99.79       40.12       -17.03      
O           93.96       40.38       -17.98      
C           98.72       40.04       -14.48      
C           94.98       40.89       -20.52      
H           94.74054    39.91037    -20.93362   
H           95.51       41.5        -21.29      
H           94.05       41.45       -20.29      
H           98.49       39.22       -13.78      
H           98.78273    41.0019     -13.97117   
H           99.78       39.64       -14.7       
N           97.95       40.02       -15.69      
C           96.3        40.36       -17.13      
C           96.6        39.98       -15.8       
C           99.56       41.44       -22.22      
C           100.16      40.67       -21.31      
S           98.04       41.95       -21.67      
H           99.66       39.83       -19.33      
H           101.19      40.31       -21.34      
C           99.35       40.41       -20.18      
C           98.11       40.96       -20.26      
C           101.0       41.45       -25.8       
C           100.92      42.81       -25.43      
S           100.36      40.44       -24.59      
H           100.19      43.9        -23.64      
H           101.25      43.62       -26.05      
C           100.27      42.97       -24.13      
C           100.01      41.74       -23.55      
C           102.74      40.5        -29.19      
C           102.04      39.41       -28.72      
S           102.67      41.74       -27.94      
H           100.87      38.79       -26.89      
H           102.14      38.48       -29.22      
C           101.36      39.62       -27.49      
C           101.5       40.85       -27.03      
C           105.16      38.91       -33.18      
C           104.68      39.95       -32.38      
N           104.66      37.73       -32.63      
C           103.91      38.02       -31.41      
C           104.71      41.39       -32.18      
O           105.44      42.26       -32.68      
O           103.5       37.09       -30.71      
C           103.52      43.12       -30.72      
C           104.75      36.4        -33.21      
H           105.36115   35.70551    -32.63357   
H           105.24      36.36       -34.25      
H           103.77      35.97       -33.31      
H           103.54      43.33       -29.64      
H           102.59248   43.4408     -31.19422   
H           104.33      43.7        -31.16      
N           103.91      41.7        -31.01      
C           103.98      39.47       -31.28      
C           103.53      40.54       -30.42      
C           106.42      39.06       -36.98      
C           106.94      40.09       -36.37      
S           105.65      38.03       -35.83      
H           106.73      41.02       -34.36      
H           107.42      40.92       -36.95      
C           106.58      40.14       -34.98      
C           105.95      39.02       -34.46      
C           106.66      38.61       -40.83      
C           106.47      37.42       -40.29      
S           106.71      39.85       -39.62      
H           106.14      36.54       -38.32      
H           106.37      36.52       -40.88      
C           106.32      37.44       -38.89      
C           106.5       38.67       -38.35      
C           107.49      39.18       -44.63      
C           107.21      40.35       -44.07      
S           107.35      37.89       -43.49      
H           106.56      41.05       -42.06      
H           107.23      41.31       -44.55      
C           106.89      40.24       -42.67      
C           106.94      39.0        -42.2       
C           108.37      40.52       -49.16      
C           108.63      39.67       -48.13      
N           107.46      41.45       -48.7       
C           107.0       41.11       -47.39      
C           109.34      38.46       -47.77      
O           110.21      37.79       -48.32      
O           106.15      41.7        -46.73      
C           109.74      37.23       -45.66      
C           106.83      42.65       -49.31      
H           105.83751   42.38195    -49.67222   
H           107.4       42.89       -50.23      
H           106.81      43.48       -48.66      
H           109.01      36.71       -44.99      
H           110.62297   37.68192    -45.20808   
H           110.07      36.48       -46.33      
N           108.96      38.17       -46.42      
C           107.77      39.96       -47.0       
C           107.94      39.04       -46.01      
C           110.46      40.85       -52.54      
C           110.42      39.59       -52.15      
S           109.47      41.85       -51.45      
H           109.31      38.34       -50.61      
H           110.91      38.82       -52.7       
C           109.53      39.31       -51.01      
C           108.89      40.42       -50.56      
C           112.31      41.76       -55.82      
C           112.03      42.94       -55.14      
S           111.8       40.36       -54.83      
H           111.2       43.56       -53.18      
H           112.27      43.9        -55.48      
C           111.46      42.74       -53.83      
C           111.21      41.42       -53.6       
C           114.28      41.65       -59.19      
C           113.81      40.36       -58.97      
S           113.64      42.77       -58.05      
H           112.43      39.46       -57.48      
H           114.05      39.46       -59.45      
C           112.91      40.32       -57.83      
C           112.91      41.46       -57.13      
C           116.86      40.62       -63.08      
C           116.35      41.61       -62.22      
N           116.42      39.39       -62.63      
C           115.79      39.58       -61.38      
C           116.26      43.05       -62.04      
O           116.75      43.97       -62.57      
O           115.48      38.58       -60.75      
C           115.38      44.54       -60.25      
C           116.56      38.03       -63.19      
H           115.62227   37.58213    -63.5189    
H           117.06      37.36       -62.51      
H           117.32      38.09       -64.03      
H           115.42      44.49       -59.13      
H           114.45579   45.0289     -60.55807   
H           116.33      45.07       -60.5       
N           115.52      43.21       -60.83      
C           115.71      41.0        -61.14      
C           115.14      41.97       -60.32      
C           118.56      41.02       -66.6       
C           118.93      42.04       -65.75      
S           117.38      40.02       -65.77      
H           118.44      42.81       -63.8       
H           119.6       42.87       -66.01      
C           118.28      42.07       -64.54      
C           117.57      40.85       -64.31      
C           119.09      39.46       -70.09      
C           120.33      39.65       -69.55      
S           117.82      40.1        -69.12      
H           121.14      40.46       -67.74      
H           121.22      39.28       -69.93      
C           120.21      40.34       -68.3       
C           118.97      40.61       -67.89      
C           117.56      37.1        -72.81      
C           118.82      37.48       -73.14      
S           117.14      38.11       -71.46      
H           120.49      38.48       -72.34      
H           119.36      36.93       -73.9       
C           119.46      38.32       -72.27      
C           118.75      38.77       -71.28      
C           116.31      34.05       -76.33      
C           115.99      34.61       -75.09      
N           117.27      34.79       -76.9       
C           117.75      35.82       -75.99      
C           115.15      34.48       -73.9       
O           114.14      33.77       -73.62      
O           118.64      36.62       -76.26      
C           115.41      35.16       -71.45      
C           118.0       34.64       -78.15      
H           117.6908    35.45079    -78.80963   
H           117.81      33.68       -78.64      
H           119.05      34.79       -78.0       
H           115.26      36.11       -71.01      
H           116.23461   34.66664    -70.9355    
H           114.46      34.66       -71.41      
N           115.69      35.35       -72.87      
C           116.92      35.64       -74.79      
C           116.66      36.18       -73.54      
C           114.21      31.16       -78.06      
C           113.41      31.79       -77.15      
S           115.75      31.87       -78.16      
H           113.52      33.45       -75.88      
H           112.44      31.4        -76.85      
C           114.04      32.89       -76.59      
C           115.39      33.14       -76.99      
C           114.15      27.65       -79.79      
C           112.95      27.94       -79.23      
S           115.16      28.99       -79.57      
H           111.91      29.73       -78.34      
H           112.1       27.3        -79.33      
C           112.77      29.28       -78.79      
C           113.96      29.93       -78.73      
C           114.55      24.16       -81.68      
C           115.75      24.55       -81.12      
S           113.4       25.42       -81.44      
H           116.51      26.18       -79.79      
H           116.64      23.96       -81.25      
C           115.71      25.71       -80.37      
C           114.47      26.39       -80.48      
C           115.91      21.5        -85.49      
C           114.94      21.78       -84.49      
N           117.05      22.24       -85.17      
C           116.91      22.94       -83.91      
C           113.62      21.51       -84.12      
O           112.81      20.65       -84.51      
O           117.82      23.61       -83.5       
C           112.09      22.24       -82.23      
C           118.26      22.33       -85.95      
H           118.06578   22.98897    -86.79625   
H           119.0       22.67       -85.28      
H           118.54      21.37       -86.31      
H           111.63      23.21       -82.1       
H           112.1675    21.88774    -81.2014    
H           111.3       21.88       -82.9       
N           113.35      22.33       -82.95      
C           115.49      22.77       -83.59      
C           114.48      23.18       -82.71      
C           115.75      19.07       -88.53      
C           114.5       19.46       -88.16      
S           116.83      19.68       -87.36      
H           113.56      20.72       -86.65      
H           113.62      19.23       -88.77      
C           114.42      20.34       -87.07      
C           115.69      20.71       -86.63      
C           116.36      17.26       -91.95      
C           117.45      17.07       -91.16      
S           115.11      18.22       -91.16      
H           117.96      17.57       -89.08      
H           118.36      16.62       -91.51      
C           117.3       17.58       -89.88      
C           116.13      18.29       -89.69      
C           116.81      16.76       -95.8       
C           115.48      16.81       -95.5       
S           117.77      17.0        -94.39      
H           114.21      16.94       -93.72      
H           114.67      16.62       -96.24      
C           115.25      16.91       -94.09      
C           116.37      16.98       -93.35      
C           116.22      16.4        -100.51     
C           117.11      16.38       -99.45      
N           115.11      17.03       -100.01     
C           115.33      17.52       -98.68      
C           118.41      15.94       -99.03      
O           119.34      15.46       -99.62      
O           114.44      18.12       -98.13      
C           119.57      15.43       -96.86      
C           114.17      17.77       -100.81     
H           114.57071   18.75747    -101.03898  
H           113.3       18.01       -100.24     
H           113.84      17.24       -101.62     
H           119.17      15.07       -95.93      
H           120.4591    16.04553    -96.72321   
H           119.94      14.6        -97.46      
N           118.5       16.06       -97.57      
C           116.53      16.88       -98.26      
C           117.32      16.59       -97.16      
C           116.44      15.03       -104.18     
C           117.66      14.96       -103.59     
S           115.31      15.76       -103.11     
H           118.6       15.82       -101.7      
H           118.45      14.45       -104.16     
C           117.74      15.61       -102.35     
C           116.49      16.04       -101.91     
C           115.11      13.97       -107.67     
C           116.44      13.94       -107.79     
S           114.57      14.52       -106.12     
H           118.16      14.11       -106.56     
H           116.99      13.63       -108.68     
C           117.06      14.25       -106.54     
C           116.17      14.66       -105.54     
C           112.39      14.12       -110.54     
C           113.39      13.28       -110.96     
S           112.7       14.56       -108.84     
H           115.39      12.82       -110.3      
H           113.41      12.9        -112.01     
C           114.44      13.24       -110.06     
C           114.2       13.77       -108.8      
H           78.38       27.17       27.27       
H           111.44      14.37       -111.0      
