392

C           68.28       1.24        10.3        
C           66.98       0.89        9.87        
N           68.43       0.93        11.66       
C           67.21       0.32        12.15       
C           66.02       0.9         8.8         
O           66.08       1.16        7.55        
O           67.1        0.11        13.37       
C           63.64       0.21        8.49        
C           69.6        0.86        12.55       
H           70.04465    -0.13518    12.55       
H           69.23       1.08        13.56       
H           70.39       1.6         12.17       
H           62.77       0.75        8.98        
H           63.27777    -0.81149    8.37409     
H           63.82       0.67        7.54        
N           64.8        0.31        9.33        
C           66.31       0.28        11.0        
C           64.98       0.1         10.71       
C           71.0        3.48        8.39        
C           69.83       3.47        7.72        
S           70.93       2.38        9.78        
H           67.76       2.79        8.13        
H           69.62       4.05        6.74        
C           68.82       2.74        8.41        
C           69.2        2.11        9.58        
C           74.65       4.61        7.54        
C           73.8        5.57        7.04        
S           73.81       3.36        8.33        
H           71.62       5.85        6.77        
H           74.22       6.32        6.38        
C           72.41       5.26        7.2         
C           72.25       4.08        7.99        
C           78.18       3.86        6.09        
C           78.14       3.28        7.32        
S           76.71       4.77        5.76        
H           76.7        3.24        9.02        
H           78.85       2.59        7.66        
C           76.96       3.7         8.05        
C           76.05       4.36        7.32        
C           82.09       1.78        4.07        
C           81.16       2.85        4.12        
N           81.73       0.92        5.07        
C           80.54       1.39        5.73        
C           80.78       4.12        3.44        
O           81.33       4.77        2.56        
O           79.99       0.66        6.54        
C           79.18       5.97        4.0         
C           82.42       -0.27       5.51        
H           83.08853    -0.07797    6.34922     
H           83.1        -0.63       4.77        
H           81.69       -1.05       5.6         
H           79.09       6.39        4.96        
H           78.2906     6.11118     3.38589     
H           80.07       6.34        3.5         
N           79.63       4.57        4.17        
C           80.15       2.66        5.11        
C           79.2        3.62        5.1         
C           85.05       1.42        1.56        
C           85.06       2.69        2.01        
S           83.87       0.43        2.31        
H           83.68       3.88        3.25        
H           85.72       3.48        1.59        
C           83.99       2.89        2.92        
C           83.32       1.74        3.32        
C           87.26       0.1         -1.36       
C           87.66       -0.51       -0.17       
S           86.07       1.38        -1.01       
H           87.0        -0.62       1.95        
H           88.31       -1.38       -0.08       
C           86.92       -0.1        0.93        
C           86.0        0.84        0.65        
C           88.32       -0.19       -5.07       
C           88.25       -1.41       -4.5        
S           87.9        1.04        -3.88       
H           87.81       -2.3        -2.6        
H           88.49       -2.25       -5.09       
C           87.95       -1.39       -3.21       
C           87.61       -0.2        -2.65       
C           90.86       -1.35       -9.02       
C           90.06       -0.36       -8.36       
N           90.82       -2.53       -8.32       
C           90.26       -2.19       -7.02       
C           89.4        0.93        -8.49       
O           89.31       1.68        -9.44       
O           90.34       -3.08       -6.16       
C           87.9        2.29        -7.03       
C           90.18       -3.76       -8.75       
H           89.10192    -3.61487    -8.81911    
H           90.49       -4.63       -8.09       
H           90.63       -4.1        -9.65       
H           88.12       2.78        -6.14       
H           86.83173    2.08456     -7.09848    
H           88.07       2.96        -7.89       
N           88.7        1.14        -7.23       
C           89.61       -0.88       -7.06       
C           88.87       0.05        -6.39       
C           92.87       -1.44       -12.46      
C           92.23       -0.3        -12.35      
S           92.48       -2.47       -11.1       
H           90.89       0.76        -10.88      
H           92.32       0.53        -13.04      
C           91.43       -0.18       -11.18      
C           91.5        -1.21       -10.3       
C           95.37       -3.4        -14.85      
C           94.62       -2.47       -15.57      
S           94.99       -3.1        -13.17      
H           93.13       -0.78       -15.17      
H           94.64       -2.47       -16.7       
C           93.8        -1.62       -14.75      
C           93.75       -1.94       -13.46      
C           98.3        -5.91       -15.38      
C           97.74       -5.75       -16.62      
S           97.34       -5.09       -14.15      
H           96.03       -4.63       -17.47      
H           98.2        -6.18       -17.5       
C           96.63       -4.9        -16.59      
C           96.39       -4.36       -15.39      
C           101.17      -9.79       -16.08      
C           100.8       -8.73       -15.27      
N           100.32      -9.71       -17.2       
C           99.31       -8.71       -17.1       
C           101.11      -8.0        -14.04      
O           102.02      -8.13       -13.18      
O           98.43       -8.5        -17.87      
C           100.32      -5.94       -12.88      
C           100.39      -10.41      -18.43      
H           99.53247    -11.05486   -18.62209   
H           101.25      -11.06      -18.48      
H           100.36      -9.71       -19.19      
H           99.42       -5.51       -12.59      
H           101.14219   -5.23024    -12.97135   
H           100.41      -6.63       -12.05      
N           100.21      -6.87       -14.05      
C           99.66       -8.03       -15.85      
C           99.27       -6.93       -15.11      
C           104.02      -12.58      -15.71      
C           104.38      -11.44      -15.02      
S           102.48      -12.23      -16.49      
H           103.66      -9.44       -14.73      
H           105.18      -11.42      -14.35      
C           103.42      -10.39      -15.2       
C           102.33      -10.62      -15.94      
C           104.92      -16.37      -15.97      
C           106.1       -15.68      -15.88      
S           103.55      -15.29      -15.74      
H           106.59      -13.46      -15.68      
H           107.08      -16.11      -15.79      
C           105.88      -14.23      -15.79      
C           104.54      -13.87      -15.76      
C           103.99      -20.09      -16.21      
C           105.25      -19.95      -16.66      
S           103.14      -18.58      -15.98      
H           106.64      -18.26      -16.78      
H           105.85      -20.81      -16.97      
C           105.62      -18.61      -16.63      
C           104.68      -17.76      -16.19      
C           103.17      -24.66      -17.24      
C           102.98      -23.55      -16.39      
N           103.98      -24.28      -18.32      
C           104.29      -22.85      -18.12      
C           102.22      -23.11      -15.23      
O           101.51      -23.74      -14.47      
O           104.78      -22.12      -19.0       
C           102.52      -21.11      -13.76      
C           104.75      -25.13      -19.21      
H           105.76368   -24.74987   -19.33671   
H           104.28      -25.22      -20.18      
H           104.75      -26.11      -18.72      
H           102.4       -20.09      -13.94      
H           103.36394   -21.18934   -13.07475   
H           101.63      -21.54      -13.39      
N           102.67      -21.78      -15.07      
C           103.68      -22.47      -16.88      
C           103.36      -21.37      -16.18      
C           101.39      -28.17      -17.74      
C           101.2       -27.73      -16.43      
S           102.25      -26.96      -18.59      
H           101.42      -25.94      -15.18      
H           100.64      -28.33      -15.69      
C           101.75      -26.48      -16.11      
C           102.5       -25.96      -17.12      
C           100.43      -30.68      -20.53      
C           100.13      -31.32      -19.29      
S           101.06      -29.12      -20.18      
H           100.2       -30.84      -17.1       
H           99.71       -32.32      -19.24      
C           100.41      -30.5       -18.13      
C           100.99      -29.31      -18.49      
C           99.53       -32.33      -24.02      
C           99.98       -31.02      -24.16      
S           99.59       -32.65      -22.26      
H           101.0       -29.48      -22.87      
H           100.13      -30.48      -25.1       
C           100.47      -30.42      -22.98      
C           100.19      -31.12      -21.87      
C           98.23       -33.48      -28.49      
C           98.59       -33.91      -27.18      
N           98.19       -32.08      -28.39      
C           98.69       -31.61      -27.13      
C           98.75       -35.09      -26.4       
O           98.65       -36.25      -26.71      
O           98.75       -30.4       -26.91      
C           99.25       -35.68      -24.0       
C           97.93       -31.02      -29.38      
H           98.83201    -30.51967   -29.73235   
H           97.16       -30.38      -28.93      
H           97.52       -31.47      -30.27      
H           98.86       -35.29      -23.05      
H           100.31692   -35.88091   -23.90301   
H           98.67       -36.54      -24.22      
N           98.92       -34.66      -25.01      
C           98.8        -32.86      -26.31      
C           99.04       -33.27      -25.02      
C           97.16       -35.34      -31.81      
C           96.9        -36.15      -30.75      
S           97.73       -33.83      -31.23      
H           97.04       -36.11      -28.55      
H           96.6        -37.15      -30.97      
C           97.15       -35.59      -29.47      
C           97.64       -34.34      -29.56      
C           97.89       -36.81      -35.29      
C           97.2        -35.65      -35.39      
S           98.07       -37.1       -33.59      
H           96.41       -33.94      -34.11      
H           96.76       -35.34      -36.35      
C           96.86       -34.95      -34.19      
C           97.28       -35.68      -33.16      
C           99.2        -38.57      -38.54      
C           99.42       -39.46      -37.49      
S           98.35       -37.16      -37.94      
H           99.1        -39.49      -35.28      
H           100.02      -40.31      -37.69      
C           98.99       -38.91      -36.24      
C           98.3        -37.71      -36.3       
C           99.49       -37.87      -43.22      
C           100.01      -38.44      -42.11      
N           98.42       -37.08      -42.84      
C           98.27       -37.16      -41.48      
C           101.08      -39.26      -41.64      
O           102.02      -39.75      -42.2       
O           97.37       -36.49      -40.91      
C           102.04      -39.72      -39.39      
C           97.77       -36.04      -43.57      
H           98.14712    -35.03918   -43.35968   
H           96.7        -36.16      -43.39      
H           97.9        -36.25      -44.62      
H           101.78      -40.09      -38.45      
H           102.74754   -38.89568   -39.3007    
H           102.47      -40.52      -40.0       
N           100.84      -39.37      -40.25      
C           99.22       -38.06      -40.98      
C           99.72       -38.71      -39.88      
C           100.84      -38.21      -46.93      
C           101.0       -39.34      -46.28      
S           99.84       -37.12      -45.95      
H           100.59      -40.2       -44.25      
H           101.51      -40.16      -46.84      
C           100.52      -39.35      -44.95      
C           99.85       -38.21      -44.57      
C           102.77      -37.55      -50.28      
C           101.91      -36.46      -50.1       
S           102.46      -38.81      -49.13      
H           100.6       -35.84      -48.44      
H           101.84      -35.54      -50.75      
C           101.25      -36.61      -48.86      
C           101.34      -37.88      -48.27      
C           105.85      -38.8       -52.39      
C           104.94      -38.21      -53.28      
S           105.13      -38.86      -50.78      
H           102.87      -37.09      -53.11      
H           105.07      -38.3       -54.37      
C           103.76      -37.6       -52.61      
C           103.73      -37.96      -51.28      
C           108.53      -41.21      -55.54      
C           108.4       -40.64      -54.26      
N           107.32      -40.99      -56.18      
C           106.36      -40.39      -55.31      
C           109.1       -40.45      -53.03      
O           110.19      -40.86      -52.59      
O           105.18      -40.22      -55.61      
C           108.86      -39.01      -51.13      
C           107.13      -40.82      -57.66      
H           106.80532   -39.79761   -57.85342   
H           106.45      -41.56      -58.1       
H           108.07      -40.96      -58.17      
H           108.08      -38.76      -50.44      
H           109.36715   -38.12916   -51.52371   
H           109.6       -39.7       -50.61      
N           108.22      -39.68      -52.17      
C           107.14      -40.07      -54.09      
C           106.96      -39.59      -52.83      
C           111.5       -43.06      -57.49      
C           112.0       -42.47      -56.36      
S           109.84      -42.69      -57.57      
H           111.17      -41.17      -54.64      
H           113.0       -42.66      -55.97      
C           111.05      -41.69      -55.57      
C           109.83      -41.73      -56.11      
C           112.85      -45.3       -60.38      
C           113.77      -45.37      -59.33      
S           111.41      -44.36      -59.87      
H           113.94      -44.36      -57.31      
H           114.78      -45.71      -59.51      
C           113.35      -44.5       -58.22      
C           112.17      -43.93      -58.38      
C           112.4       -46.21      -64.13      
C           113.63      -46.67      -63.73      
S           111.5       -45.83      -62.68      
H           114.94      -46.73      -61.98      
H           114.34      -47.11      -64.42      
C           113.95      -46.49      -62.37      
C           112.91      -45.93      -61.69      
C           112.12      -47.13      -68.78      
C           111.67      -46.45      -67.65      
N           113.21      -47.93      -68.4       
C           113.42      -47.86      -66.94      
C           110.66      -45.49      -67.21      
O           109.84      -44.88      -67.78      
O           114.23      -48.45      -66.29      
C           110.63      -43.9       -65.37      
C           114.06      -48.68      -69.27      
H           115.04304   -48.23185   -69.41456   
H           114.27      -49.62      -68.81      
H           113.5       -48.9       -70.17      
H           111.17      -43.64      -64.48      
H           109.58074   -43.74913   -65.11626   
H           110.93      -43.31      -66.21      
N           110.94      -45.28      -65.85      
C           112.4       -46.91      -66.5       
C           111.86      -46.27      -65.41      
C           109.68      -47.39      -71.83      
C           110.97      -47.43      -72.29      
S           109.71      -47.28      -70.08      
H           113.0       -47.21      -71.4       
H           111.23      -47.73      -73.3       
C           111.94      -47.21      -71.26      
C           111.4       -47.12      -70.03      
C           106.41      -46.93      -73.85      
C           106.15      -47.88      -72.93      
S           108.08      -46.43      -73.83      
H           107.46      -48.94      -71.44      
H           105.19      -48.38      -72.8       
C           107.35      -48.15      -72.19      
C           108.41      -47.4       -72.49      
C           103.17      -45.04      -75.15      
C           104.19      -44.59      -75.96      
S           103.71      -46.32      -74.14      
H           106.39      -44.92      -76.05      
H           104.0       -43.77      -76.65      
C           105.44      -45.27      -75.67      
C           105.39      -46.14      -74.59      
C           99.51       -41.92      -75.46      
C           99.93       -43.2       -75.16      
N           100.62      -41.1       -75.84      
C           101.82      -41.96      -75.83      
C           99.5        -44.51      -74.81      
O           98.33       -44.88      -74.72      
O           102.89      -41.49      -76.24      
C           100.53      -46.76      -74.65      
C           100.72      -39.65      -75.89      
H           101.05819   -39.15742   -74.97836   
H           99.72       -39.28      -76.06      
H           101.27      -39.39      -76.79      
H           101.21      -47.01      -73.84      
H           100.65146   -47.31731   -75.57885   
H           99.48       -46.78      -74.33      
N           100.74      -45.33      -74.84      
C           101.37      -43.27      -75.4       
C           101.86      -44.52      -75.06      
C           95.87       -40.46      -74.87      
C           96.19       -41.27      -73.84      
S           97.18       -40.5       -76.02      
H           97.96       -42.58      -73.26      
H           95.47       -41.39      -72.99      
C           97.48       -41.92      -73.96      
C           98.2        -41.45      -75.02      
C           93.11       -37.83      -75.67      
C           92.55       -38.79      -74.89      
S           94.77       -38.17      -76.01      
H           93.13       -40.73      -74.06      
H           91.55       -38.74      -74.53      
C           93.42       -39.82      -74.62      
C           94.73       -39.67      -75.14      
C           91.1        -34.75      -76.98      
C           92.25       -34.83      -77.64      
S           91.09       -35.91      -75.67      
H           94.18       -35.97      -77.59      
H           92.55       -34.16      -78.42      
C           93.17       -35.84      -77.18      
C           92.55       -36.63      -76.22      
H           64.33       -0.59       11.27       
H           90.34       -34.02      -77.22      
