392

C           69.72       30.65       4.67        
C           68.95       30.41       5.73        
N           70.74       29.66       4.54        
C           70.51       28.71       5.58        
C           67.77       30.87       6.44        
O           66.99       31.76       6.47        
O           71.11       27.62       5.76        
C           66.38       29.85       8.28        
C           71.97       29.59       3.8         
H           72.84785    29.54044    4.44423     
H           72.02       30.48       3.15        
H           71.86       28.77       3.12        
H           66.42       29.44       9.32        
H           65.52706    29.38088    7.78956     
H           66.08       30.88       8.43        
N           67.59       29.85       7.52        
C           69.39       29.21       6.37        
C           68.58       28.89       7.43        
C           69.7        33.9        2.21        
C           69.16       34.21       3.46        
S           70.2        32.25       2.35        
H           68.61       33.16       5.27        
H           68.88       35.18       3.84        
C           69.04       33.1        4.36        
C           69.66       31.9        3.97        
C           70.5        35.72       -1.17       
C           70.29       36.71       -0.23       
S           70.19       34.16       -0.45       
H           69.51       36.69       1.86        
H           70.41       37.79       -0.52       
C           69.87       36.14       1.0         
C           69.91       34.79       1.08        
C           72.22       35.21       -4.66       
C           71.89       36.55       -4.59       
S           71.85       34.4        -3.14       
H           70.65       37.85       -3.33       
H           72.03       37.31       -5.32       
C           71.17       36.88       -3.41       
C           71.08       35.8        -2.5        
C           74.99       35.31       -8.73       
C           74.27       34.56       -7.8        
N           74.78       36.63       -8.38       
C           73.76       36.75       -7.32       
C           73.94       33.2        -7.35       
O           74.38       32.17       -7.71       
O           73.4        37.86       -6.89       
C           72.67       32.1        -5.4        
C           75.35       37.86       -8.97       
H           74.61333    38.5602     -9.36386    
H           76.04       37.67       -9.77       
H           75.86       38.26       -8.11       
H           71.78       32.24       -4.78       
H           73.52828    31.50636    -5.0853     
H           72.04       31.65       -6.17       
N           73.12       33.28       -6.11       
C           73.5        35.37       -6.83       
C           72.97       34.61       -5.81       
C           77.31       34.08       -11.77      
C           77.26       33.17       -10.75      
S           76.43       35.5        -11.27      
H           76.35       33.02       -8.7        
H           77.79       32.24       -10.8       
C           76.48       33.54       -9.62       
C           76.04       34.84       -9.68       
C           79.28       33.07       -14.9       
C           78.86       34.37       -15.15      
S           78.56       32.36       -13.52      
H           77.54       35.68       -14.06      
H           79.2        35.02       -15.87      
C           77.99       34.75       -14.1       
C           77.89       33.86       -13.09      
C           81.74       31.3        -17.45      
C           81.51       30.41       -16.38      
S           80.76       32.71       -17.26      
H           80.45       30.47       -14.44      
H           81.99       29.43       -16.38      
C           80.69       31.01       -15.32      
C           80.16       32.24       -15.68      
C           85.32       28.99       -19.67      
C           84.37       30.0        -19.71      
N           85.31       28.42       -18.43      
C           84.39       29.21       -17.56      
C           83.67       30.97       -20.58      
O           83.84       31.19       -21.73      
O           84.16       28.98       -16.41      
C           81.58       32.31       -20.44      
C           85.93       27.15       -18.01      
H           85.21128    26.50315    -17.50689   
H           86.65       27.36       -17.25      
H           86.48       26.58       -18.79      
H           81.21       33.07       -19.75      
H           80.72851    31.74715    -20.82245   
H           82.16       32.73       -21.25      
N           82.6        31.44       -19.76      
C           83.7        30.13       -18.44      
C           82.71       31.04       -18.46      
C           87.49       27.49       -22.55      
C           86.38       28.03       -23.05      
S           87.52       27.67       -20.85      
H           84.61       29.05       -22.38      
H           86.07       27.94       -24.11      
C           85.57       28.63       -22.08      
C           85.99       28.45       -20.77      
C           90.4        25.22       -23.43      
C           89.55       25.14       -24.45      
S           89.99       26.42       -22.25      
H           87.67       26.09       -25.07      
H           89.63       24.32       -25.16      
C           88.44       26.01       -24.33      
C           88.53       26.7        -23.19      
C           93.33       22.58       -23.19      
C           93.52       23.63       -22.29      
S           91.82       23.02       -23.98      
H           92.52       25.35       -21.52      
H           94.36       23.66       -21.61      
C           92.54       24.64       -22.27      
C           91.55       24.49       -23.15      
C           96.6        19.44       -21.94      
C           95.55       19.75       -22.73      
N           96.55       20.32       -20.83      
C           95.42       21.18       -20.94      
C           94.95       19.38       -24.03      
O           95.23       18.43       -24.81      
O           95.2        22.12       -20.2       
C           93.46       20.47       -25.67      
C           97.49       20.61       -19.64      
H           97.07939    20.28434    -18.68426   
H           97.76       21.62       -19.52      
H           98.46       20.18       -19.81      
H           93.26       21.54       -25.98      
H           92.62307    19.79907    -25.86367   
H           94.3        20.21       -26.28      
N           93.96       20.38       -24.3       
C           94.9        20.88       -22.25      
C           93.98       21.28       -23.23      
C           98.99       16.29       -21.65      
C           98.56       16.39       -22.92      
S           98.43       17.68       -20.76      
H           97.13       17.78       -24.06      
H           98.71       15.54       -23.62      
C           97.78       17.61       -23.16      
C           97.63       18.39       -22.09      
C           100.12      12.85       -20.37      
C           100.43      13.72       -19.37      
S           99.35       13.62       -21.69      
H           100.31      15.93       -19.13      
H           100.77      13.36       -18.41      
C           100.19      15.08       -19.74      
C           99.61       15.19       -20.98      
C           100.39      8.99        -19.38      
C           100.45      9.12        -20.75      
S           100.11      10.59       -18.74      
H           100.61      10.67       -22.32      
H           100.79      8.27        -21.35      
C           100.41      10.44       -21.24      
C           100.25      11.44       -20.27      
C           99.81       4.3         -18.96      
C           100.16      5.52        -18.38      
N           99.25       4.6         -20.17      
C           99.4        6.03        -20.45      
C           100.64      6.09        -17.09      
O           100.96      5.59        -16.1       
O           99.11       6.52        -21.56      
C           101.75      8.31        -16.67      
C           99.25       3.74        -21.4       
H           100.18006   3.8323      -21.96087   
H           98.49       4.11        -22.1       
H           98.97       2.74        -21.03      
H           101.48      9.33        -16.71      
H           102.75591   8.09194     -17.02875   
H           101.67      7.92        -15.62      
N           100.81      7.52        -17.42      
C           99.94       6.62        -19.26      
C           100.27      7.79        -18.64      
C           100.02      0.61        -17.7       
C           100.81      1.35        -16.89      
S           99.05       1.62        -18.73      
H           101.33      3.49        -16.9       
H           101.37      1.04        -15.94      
C           100.78      2.72        -17.35      
C           99.96       2.98        -18.44      
C           100.0       -3.22       -17.79      
C           98.74       -2.74       -18.01      
S           101.06      -1.87       -17.37      
H           97.63       -0.85       -18.15      
H           97.95       -3.34       -18.15      
C           98.6        -1.36       -17.89      
C           99.78       -0.77       -17.58      
C           101.77      -6.72       -17.84      
C           100.48      -6.87       -18.35      
S           102.03      -5.06       -17.46      
H           98.73       -5.61       -18.71      
H           100.19      -7.89       -18.72      
C           99.72       -5.67       -18.35      
C           100.44      -4.58       -17.94      
C           103.49      -11.11      -17.76      
C           103.84      -9.7        -17.84      
N           102.16      -11.23      -17.83      
C           101.51      -9.95       -17.67      
C           104.9       -8.73       -18.03      
O           106.07      -8.88       -18.25      
O           100.29      -9.87       -17.4       
C           104.73      -6.3        -18.83      
C           101.31      -12.26      -18.42      
H           100.93945   -12.0961    -19.43189   
H           100.46      -12.33      -17.86      
H           101.8       -13.19      -18.4       
H           104.76      -5.43       -18.2       
H           104.32069   -6.04149    -19.8066    
H           105.77      -6.52       -19.06      
N           104.16      -7.46       -18.18      
C           102.57      -8.99       -17.79      
C           102.82      -7.66       -17.82      
C           106.02      -14.19      -17.92      
C           106.65      -13.06      -17.39      
S           104.38      -13.74      -18.12      
H           106.14      -11.01      -17.0       
H           107.75      -12.88      -17.39      
C           105.76      -11.99      -17.24      
C           104.45      -12.17      -17.57      
C           107.18      -17.43      -19.76      
C           107.84      -17.39      -18.58      
S           106.04      -16.14      -19.91      
H           107.96      -15.96      -16.86      
H           108.61      -18.09      -18.27      
C           107.47      -16.19      -17.84      
C           106.43      -15.51      -18.34      
C           106.76      -19.41      -23.03      
C           107.46      -20.19      -22.22      
S           106.52      -17.82      -22.32      
H           108.17      -20.19      -20.09      
H           107.77      -21.17      -22.44      
C           107.72      -19.56      -20.95      
C           107.17      -18.34      -20.78      
C           106.8       -22.07      -27.09      
C           106.33      -20.99      -26.36      
N           107.69      -22.76      -26.29      
C           107.87      -22.07      -25.01      
C           105.42      -19.87      -26.52      
O           104.64      -19.48      -27.4       
O           108.65      -22.5       -24.12      
C           104.41      -18.35      -24.82      
C           108.73      -23.82      -26.51      
H           109.72841   -23.40109   -26.63567   
H           108.58      -24.47      -27.35      
H           108.65      -24.49      -25.62      
H           104.68      -17.44      -24.3       
H           103.69516   -18.9457    -24.25233   
H           103.9       -18.01      -25.81      
N           105.5       -19.22      -25.23      
C           106.92      -20.99      -25.04      
C           106.45      -19.82      -24.38      
C           106.55      -23.05      -30.88      
C           106.2       -21.75      -30.77      
S           106.74      -23.8       -29.32      
H           105.98      -20.29      -29.09      
H           105.9       -21.08      -31.6       
C           106.23      -21.29      -29.4       
C           106.64      -22.27      -28.53      
C           107.33      -25.62      -33.63      
C           106.71      -24.53      -34.26      
S           107.62      -25.21      -31.98      
H           105.78      -22.63      -33.6       
H           106.59      -24.45      -35.37      
C           106.36      -23.5       -33.33      
C           106.72      -23.79      -32.06      
C           108.76      -28.3       -36.05      
C           109.35      -28.51      -34.87      
S           107.62      -27.01      -36.01      
H           109.02      -27.73      -32.77      
H           110.14      -29.21      -34.7       
C           108.78      -27.7       -33.82      
C           107.84      -26.8       -34.27      
C           111.62      -31.16      -38.55      
C           110.49      -30.38      -38.56      
N           112.39      -30.7       -37.5       
C           111.67      -29.75      -36.7       
C           109.27      -30.18      -39.24      
O           108.78      -30.81      -40.17      
O           112.07      -29.2       -35.69      
C           107.16      -29.03      -38.62      
C           113.85      -30.59      -37.53      
H           114.23081   -29.62332   -37.85955   
H           114.25      -31.27      -38.3       
H           114.3       -30.93      -36.58      
H           106.69      -28.2       -38.16      
H           106.5052    -29.86787   -38.38061   
H           107.03      -28.97      -39.72      
N           108.55      -29.2       -38.4       
C           110.47      -29.58      -37.36      
C           109.25      -28.91      -37.24      
C           113.1       -32.76      -41.74      
C           113.45      -33.51      -40.67      
S           111.9       -31.64      -41.29      
H           113.25      -33.48      -38.48      
H           114.18      -34.31      -40.77      
C           112.96      -33.04      -39.44      
C           112.08      -32.01      -39.59      
C           114.93      -33.16      -45.14      
C           114.04      -32.22      -45.37      
S           114.69      -34.0       -43.63      
H           112.38      -31.29      -44.15      
H           114.01      -31.67      -46.31      
C           113.17      -32.04      -44.18      
C           113.53      -32.83      -43.15      
C           117.84      -35.11      -46.88      
C           117.44      -34.12      -47.68      
S           116.77      -35.17      -45.53      
H           116.1       -32.31      -47.69      
H           117.99      -33.94      -48.63      
C           116.44      -33.24      -47.16      
C           116.07      -33.62      -45.97      
C           120.08      -38.08      -49.74      
C           119.98      -37.6       -48.48      
N           119.3       -37.33      -50.57      
C           118.75      -36.22      -49.9       
C           120.3       -37.86      -47.08      
O           120.89      -38.74      -46.45      
O           117.98      -35.44      -50.47      
C           119.35      -36.99      -44.91      
C           118.6       -37.79      -51.74      
H           118.07817   -38.71167   -51.48247   
H           117.86      -37.08      -52.04      
H           119.29      -37.92      -52.58      
H           118.29      -37.2       -44.73      
H           119.72813   -36.17296   -44.29553   
H           119.77      -37.91      -44.53      
N           119.48      -36.92      -46.35      
C           119.18      -36.45      -48.54      
C           118.83      -36.06      -47.25      
C           121.72      -41.56      -50.69      
C           121.12      -41.62      -49.47      
S           121.56      -39.95      -51.31      
H           120.07      -40.35      -48.07      
H           121.13      -42.57      -48.84      
C           120.54      -40.4       -49.09      
C           120.62      -39.3       -49.97      
C           123.36      -43.8       -53.46      
C           122.48      -44.59      -52.75      
S           123.36      -42.19      -52.83      
H           121.07      -44.41      -51.09      
H           122.38      -45.66      -52.9       
C           121.74      -43.92      -51.74      
C           122.21      -42.62      -51.57      
C           125.79      -44.31      -56.46      
C           124.69      -45.15      -56.59      
S           125.44      -43.32      -55.08      
H           122.79      -45.77      -55.54      
H           124.66      -45.82      -57.42      
C           123.71      -45.1       -55.57      
C           124.07      -44.2       -54.62      
C           128.3       -44.98      -60.41      
C           128.22      -44.48      -59.14      
N           126.99      -45.21      -60.78      
C           126.09      -45.09      -59.64      
C           129.06      -43.89      -58.11      
O           130.27      -43.87      -58.18      
O           124.97      -45.33      -59.78      
C           128.79      -43.27      -55.79      
C           126.35      -45.32      -62.11      
H           125.79029   -44.42862   -62.39331   
H           125.74      -46.26      -62.16      
H           127.18      -45.27      -62.88      
H           128.02      -43.27      -55.04      
H           129.14423   -42.24346   -55.88398   
H           129.7       -43.9       -55.62      
N           128.2       -43.77      -57.0       
C           126.95      -44.5       -58.64      
C           126.93      -44.11      -57.32      
C           131.35      -45.65      -62.85      
C           131.62      -44.62      -62.07      
S           129.79      -46.26      -62.45      
H           130.6       -43.45      -60.52      
H           132.59      -44.18      -62.04      
C           130.57      -44.24      -61.18      
C           129.43      -45.0       -61.31      
C           133.56      -48.37      -64.9       
C           134.28      -47.24      -64.73      
S           131.99      -48.09      -64.24      
H           134.11      -45.32      -63.64      
H           135.33      -47.18      -64.99      
C           133.62      -46.17      -64.06      
C           132.28      -46.41      -63.7       
C           134.9       -51.21      -67.21      
C           133.59      -51.48      -66.94      
S           135.35      -49.65      -66.53      
H           132.0       -50.54      -65.64      
H           133.06      -52.3       -67.36      
C           133.02      -50.54      -66.08      
C           133.82      -49.51      -65.62      
H           68.54       27.89       7.77        
H           135.65      -52.02      -67.26      
