392

C           61.46       14.49       8.38        
C           61.35       14.26       7.03        
N           60.31       13.91       9.01        
C           59.45       13.39       8.01        
C           62.08       14.36       5.75        
O           63.16       14.63       5.35        
O           58.3        13.06       8.26        
C           61.28       14.26       3.29        
C           60.15       13.37       10.4        
H           60.42087    12.31428    10.41389    
H           59.14       13.6        10.76       
H           60.85       13.81       11.09       
H           60.52       14.98       2.84        
H           61.29472    13.30346    2.76758     
H           62.25       14.73       3.31        
N           61.05       13.99       4.78        
C           60.17       13.6        6.73        
C           60.0        13.41       5.38        
C           64.34       15.89       10.59       
C           64.85       15.6        9.38        
S           62.61       15.66       10.58       
H           64.07       14.69       7.55        
H           65.87       15.65       9.15        
C           63.9        14.97       8.55        
C           62.61       14.9        9.03        
C           67.05       16.52       13.38       
C           65.92       17.07       13.77       
S           66.78       15.8        11.85       
H           63.86       17.54       12.98       
H           65.8        17.51       14.79       
C           64.85       17.07       12.8        
C           65.15       16.38       11.67       
C           70.29       15.33       15.01       
C           69.56       15.94       15.98       
S           69.46       15.41       13.41       
H           67.81       17.2        16.01       
H           69.92       16.08       16.97       
C           68.4        16.53       15.45       
C           68.19       16.26       14.14       
C           74.56       15.2        17.33       
C           73.8        14.75       16.29       
N           73.92       16.28       17.92       
C           72.71       16.59       17.21       
C           73.68       13.78       15.16       
O           74.46       12.94       14.85       
O           71.95       17.51       17.42       
C           71.72       12.76       13.97       
C           73.83       16.58       19.37       
H           73.16692    15.8746     19.87084    
H           73.49       17.6        19.57       
H           74.82       16.51       19.89       
H           71.14       13.15       13.13       
H           71.11184    12.11689    14.60612    
H           72.49       12.2        13.51       
N           72.3        13.86       14.68       
C           72.58       15.54       16.15       
C           71.72       15.01       15.17       
C           78.25       14.56       18.41       
C           77.79       13.54       17.58       
S           76.96       15.62       18.76       
H           76.03       12.88       16.62       
H           78.45       12.82       17.15       
C           76.43       13.61       17.26       
C           75.85       14.71       17.76       
C           82.07       14.73       18.61       
C           81.57       15.41       19.67       
S           80.78       14.18       17.61       
H           79.57       16.05       20.52       
H           82.22       15.87       20.45       
C           80.16       15.55       19.76       
C           79.61       14.87       18.7        
C           85.51       13.29       17.37       
C           85.71       14.23       18.32       
S           83.78       13.11       17.08       
H           84.52       15.52       19.72       
H           86.73       14.27       18.75       
C           84.57       14.84       18.82       
C           83.42       14.38       18.2        
C           87.04       10.19       14.28       
C           87.36       11.32       14.97       
N           85.87       9.64        14.79       
C           85.43       10.41       15.92       
C           88.28       12.33       15.17       
O           89.43       12.47       14.74       
O           84.61       9.93        16.73       
C           88.17       14.57       16.19       
C           84.8        9.14        13.98       
H           83.93397    9.80185     13.97296    
H           84.65       8.13        14.3        
H           84.98       8.97        12.91       
H           87.86       15.13       17.12       
H           87.92945    15.0511     15.24196    
H           89.25       14.54       16.26       
N           87.69       13.22       16.21       
C           86.31       11.54       15.9        
C           86.51       12.71       16.59       
C           88.84       7.89        11.56       
C           89.67       8.86        12.04       
S           87.35       8.07        12.44       
H           89.62       10.6        13.48       
H           90.72       8.91        11.8        
C           89.16       9.76        13.05       
C           87.89       9.46        13.36       
C           89.47       5.68        8.29        
C           88.46       5.15        8.98        
S           90.1        7.12        9.17        
H           87.37       5.54        10.87       
H           87.94       4.39        8.63        
C           88.16       5.86        10.17       
C           88.98       6.91        10.52       
C           90.94       5.18        4.73        
C           90.59       3.93        5.27        
S           90.79       6.34        6.02        
H           89.54       3.13        7.01        
H           90.62       3.02        4.72        
C           89.98       3.98        6.57        
C           90.08       5.22        7.11        
C           92.73       3.92        0.48        
C           92.22       4.92        1.27        
N           92.62       2.71        1.22        
C           92.38       3.01        2.59        
C           91.76       6.31        1.25        
O           91.67       7.08        0.34        
O           92.44       2.11        3.44        
C           90.32       7.63        2.7         
C           91.96       1.48        0.83        
H           90.88861    1.60362     0.98796     
H           92.37       0.61        1.44        
H           92.21       1.17        -0.2        
H           90.44       8.09        3.64        
H           89.29735    7.26577     2.60194     
H           90.59       8.33        1.93        
N           91.26       6.5         2.63        
C           92.02       4.43        2.59        
C           91.54       5.44        3.45        
C           94.6        3.69        -2.93       
C           94.35       4.99        -2.68       
S           93.61       2.73        -1.91       
H           93.43       6.23        -1.05       
H           94.71       5.78        -3.33       
C           93.56       5.23        -1.5        
C           93.29       4.06        -0.82       
C           96.64       2.45        -6.01       
C           95.89       1.37        -5.5        
S           96.52       3.82        -4.94       
H           94.59       0.94        -3.81       
H           95.92       0.39        -5.93       
C           95.11       1.71        -4.35       
C           95.28       3.04        -4.0        
C           100.05      2.64        -7.96       
C           99.41       1.47        -8.3        
S           98.95       3.6         -7.01       
H           97.62       0.31        -7.8        
H           99.86       0.77        -8.97       
C           98.12       1.27        -7.68       
C           97.71       2.37        -6.96       
C           103.89      2.62        -10.9       
C           103.17      3.19        -9.85       
N           103.0       1.81        -11.51      
C           101.75      1.7         -10.79      
C           103.36      4.14        -8.76       
O           104.32      4.73        -8.36       
O           100.81      1.03        -11.07      
C           102.03      4.85        -6.82       
C           103.21      1.29        -12.82      
H           102.38097   1.53299     -13.48465   
H           103.49      0.23        -12.88      
H           104.03      1.81        -13.37      
H           101.29      4.36        -6.12       
H           101.67735   5.85369     -7.05736    
H           102.99      4.85        -6.29       
N           102.15      4.02        -8.02       
C           101.87      2.66        -9.7        
C           101.27      3.14        -8.56       
C           107.74      2.67        -11.71      
C           107.37      3.88        -11.37      
S           106.35      1.65        -11.75      
H           105.47      4.94        -10.66      
H           108.07      4.61        -11.23      
C           105.99      4.05        -11.08      
C           105.21      2.9         -11.37      
C           110.98      0.51        -11.89      
C           111.31      1.81        -12.17      
S           109.32      0.47        -11.35      
H           110.33      3.81        -12.43      
H           112.34      2.09        -12.37      
C           110.24      2.72        -12.21      
C           109.06      2.13        -11.94      
C           113.48      -2.38       -12.5       
C           112.44      -2.84       -11.79      
S           113.42      -0.67       -12.63      
H           110.55      -2.14       -11.0       
H           112.34      -3.87       -11.5       
C           111.44      -1.93       -11.51      
C           111.86      -0.65       -11.86      
C           115.85      -6.46       -13.22      
C           115.72      -5.13       -13.5       
N           115.08      -6.77       -12.07      
C           114.41      -5.61       -11.63      
C           116.09      -4.17       -14.5       
O           116.76      -4.22       -15.52      
O           113.96      -5.39       -10.51      
C           115.09      -2.02       -15.16      
C           114.64      -8.1        -11.7       
H           113.76062   -8.33919    -12.29798   
H           114.52      -8.16       -10.55      
H           115.3       -8.88       -11.93      
H           115.25      -0.96       -14.82      
H           114.07766   -2.04201    -15.56347   
H           115.81      -2.12       -15.92      
N           115.3       -3.05       -14.11      
C           114.77      -4.56       -12.6       
C           114.52      -3.27       -12.97      
C           116.9       -8.9        -16.1       
C           117.4       -9.38       -14.97      
S           116.1       -7.42       -15.8       
H           117.63      -8.65       -12.88      
H           118.01      -10.24      -14.97      
C           117.2       -8.5        -13.84      
C           116.49      -7.38       -14.12      
C           117.51      -10.88      -19.38      
C           116.43      -10.11      -19.56      
S           118.14      -10.74      -17.72      
H           115.44      -8.56       -18.41      
H           115.86      -10.11      -20.49      
C           116.18      -9.28       -18.48      
C           116.93      -9.54       -17.36      
C           118.88      -12.69      -22.55      
C           119.78      -12.92      -21.57      
S           117.57      -11.67      -21.97      
H           119.97      -12.41      -19.44      
H           120.59      -13.71      -21.63      
C           119.31      -12.39      -20.31      
C           118.14      -11.67      -20.33      
C           121.4       -13.24      -26.63      
C           120.18      -13.01      -25.98      
N           122.32      -13.61      -25.69      
C           121.78      -13.35      -24.39      
C           118.75      -12.68      -26.17      
O           118.1       -12.53      -27.18      
O           122.5       -13.31      -23.4       
C           116.75      -12.7       -24.83      
C           123.41      -14.56      -25.9       
H           123.05238   -15.54871   -25.6125    
H           124.28      -14.34      -25.3       
H           123.74      -14.53      -26.93      
H           116.31      -12.3       -23.89      
H           116.28228   -13.67862   -24.93794   
H           116.45      -11.99      -25.6       
N           118.19      -12.7       -24.87      
C           120.33      -13.06      -24.58      
C           119.14      -12.74      -23.95      
C           122.09      -13.2       -30.44      
C           120.78      -13.5       -30.25      
S           122.99      -13.0       -28.95      
H           119.52      -13.93      -28.48      
H           120.07      -13.8       -30.99      
C           120.48      -13.59      -28.89      
C           121.5       -13.32      -28.06      
C           123.41      -13.18      -34.1       
C           124.22      -12.38      -33.37      
S           122.1       -13.78      -33.08      
H           124.23      -11.61      -31.21      
H           125.06      -11.88      -33.73      
C           123.77      -12.21      -32.02      
C           122.67      -13.01      -31.7       
C           122.91      -14.41      -37.89      
C           123.97      -13.51      -37.83      
S           122.28      -14.54      -36.25      
H           125.05      -12.27      -36.38      
H           124.54      -13.3       -38.75      
C           124.24      -12.97      -36.53      
C           123.41      -13.39      -35.55      
C           123.02      -16.19      -42.42      
C           122.34      -15.9       -41.23      
N           124.19      -15.55      -42.37      
C           124.37      -14.9       -41.01      
C           121.1       -16.23      -40.56      
O           120.14      -16.92      -40.86      
O           125.33      -14.41      -40.55      
C           119.98      -15.69      -38.41      
C           124.98      -15.22      -43.57      
H           125.41898   -14.22499   -43.49684   
H           124.34      -15.25      -44.41      
H           125.83      -15.85      -43.75      
H           119.74      -14.72      -37.91      
H           119.93013   -16.43092   -37.61209   
H           119.21      -15.84      -39.13      
N           121.21      -15.63      -39.22      
C           123.09      -15.22      -40.3       
C           122.48      -15.12      -39.03      
C           122.16      -18.88      -45.13      
C           121.03      -18.35      -44.77      
S           123.52      -18.07      -44.45      
H           120.45      -16.81      -43.35      
H           120.03      -18.75      -44.95      
C           121.23      -17.28      -43.91      
C           122.53      -16.91      -43.61      
C           122.36      -21.84      -47.68      
C           123.58      -21.62      -47.13      
S           121.23      -20.77      -46.99      
H           124.53      -20.27      -45.62      
H           124.45      -22.08      -47.56      
C           123.6       -20.59      -46.15      
C           122.39      -20.05      -45.94      
C           122.0       -23.82      -50.91      
C           120.86      -24.06      -50.17      
S           123.13      -22.97      -49.99      
H           119.98      -23.32      -48.33      
H           120.04      -24.69      -50.57      
C           120.81      -23.27      -48.99      
C           121.99      -22.69      -48.75      
C           120.64      -26.2       -54.93      
C           121.63      -25.68      -54.12      
N           119.38      -26.02      -54.32      
C           119.61      -25.15      -53.15      
C           123.1       -25.38      -54.05      
O           123.97      -25.48      -54.86      
O           118.71      -24.87      -52.37      
C           124.73      -24.57      -52.51      
C           118.23      -26.99      -54.31      
H           118.51091   -27.90998   -53.79734   
H           117.32      -26.52      -53.95      
H           118.0       -27.35      -55.31      
H           124.99      -25.01      -51.53      
H           125.08855   -23.54357   -52.58733   
H           125.45      -25.18      -53.18      
N           123.32      -24.71      -52.85      
C           121.09      -25.02      -53.01      
C           122.16      -24.39      -52.22      
C           121.16      -27.88      -58.45      
C           122.24      -28.06      -57.67      
S           119.93      -27.16      -57.47      
H           122.94      -27.61      -55.64      
H           123.11      -28.65      -58.08      
C           122.14      -27.54      -56.36      
C           120.92      -26.96      -56.1       
C           120.18      -28.38      -62.22      
C           121.21      -29.19      -62.0       
S           119.83      -27.36      -60.82      
H           122.33      -29.91      -60.16      
H           121.76      -29.75      -62.67      
C           121.51      -29.31      -60.6       
C           120.9       -28.36      -59.82      
C           118.8       -27.71      -65.8       
C           118.28      -26.79      -64.95      
S           119.76      -28.94      -64.93      
H           118.53      -26.25      -62.74      
H           117.52      -26.08      -65.27      
C           118.76      -26.94      -63.63      
C           119.58      -28.01      -63.45      
C           116.16      -27.29      -69.77      
C           117.25      -27.78      -69.17      
N           115.5       -26.47      -68.87      
C           116.14      -26.52      -67.56      
C           118.5       -28.46      -69.46      
O           118.9       -28.9       -70.57      
O           115.75      -25.85      -66.63      
C           120.56      -29.0       -68.3       
C           114.16      -25.98      -68.83      
H           113.53567   -26.63271   -68.21986   
H           113.61      -25.93      -69.8       
H           114.15      -25.04      -68.38      
H           120.76      -29.6       -67.37      
H           121.26657   -28.17808   -68.41536   
H           120.42      -29.69      -69.11      
N           119.15      -28.59      -68.14      
C           117.3       -27.35      -67.81      
C           118.42      -27.87      -67.18      
C           114.79      -27.7       -73.46      
C           115.53      -28.79      -73.15      
S           114.95      -26.49      -72.22      
H           116.6       -29.48      -71.27      
H           115.75      -29.59      -73.87      
C           116.01      -28.73      -71.81      
C           115.68      -27.63      -71.12      
C           112.46      -27.39      -76.43      
C           112.81      -26.12      -76.15      
S           113.12      -28.63      -75.44      
H           114.03      -25.14      -74.64      
H           112.33      -25.2       -76.62      
C           113.69      -26.11      -75.08      
C           114.04      -27.35      -74.6       
C           110.18      -29.11      -79.18      
C           109.64      -27.86      -78.94      
S           111.62      -29.35      -78.2       
H           109.83      -26.33      -77.34      
H           108.68      -27.55      -79.39      
C           110.3       -27.21      -77.81      
C           111.45      -27.82      -77.45      
H           59.02       13.38       4.85        
H           109.99      -29.81      -79.99      
