392

C           66.49       39.88       20.3        
C           65.35       40.29       20.85       
N           66.55       40.54       19.1        
C           65.24       41.14       18.72       
C           64.6        40.25       22.1        
O           64.89       39.79       23.23       
O           64.94       41.65       17.68       
C           62.31       41.26       22.86       
C           67.72       40.54       18.16       
H           67.72       41.42603    17.52513    
H           67.85       39.64       17.59       
H           68.63       40.59       18.82       
H           61.49       40.6        22.71       
H           62.08622    42.31922    22.98681    
H           62.77       41.01       23.82       
N           63.39       41.04       21.84       
C           64.47       40.98       19.97       
C           63.24       41.28       20.52       
C           69.35       37.58       21.72       
C           68.81       38.28       22.8        
S           68.85       38.25       20.21       
H           67.19       39.59       23.01       
H           69.03       38.08       23.83       
C           67.88       39.23       22.33       
C           67.62       39.24       20.94       
C           71.51       34.35       21.39       
C           71.5        34.61       22.66       
S           70.54       35.47       20.39       
H           70.51       36.11       24.01       
H           72.01       34.12       23.45       
C           70.7        35.82       22.91       
C           70.16       36.43       21.79       
C           73.84       31.51       20.0        
C           73.12       32.03       19.0        
S           73.28       32.22       21.5        
H           71.56       33.51       18.59       
H           73.37       31.87       17.98       
C           72.17       32.99       19.33       
C           72.14       33.27       20.7        
C           76.39       28.04       17.79       
C           76.16       28.84       18.94       
N           75.43       28.45       16.84       
C           74.48       29.39       17.4        
C           76.64       29.04       20.26       
O           77.44       28.54       21.04       
O           73.47       29.78       16.83       
C           76.28       30.95       21.91       
C           75.44       28.38       15.38       
H           75.92685    29.25769    14.95487    
H           74.39       28.23       14.98       
H           76.12       27.62       14.97       
H           75.42       31.09       22.56       
H           76.83119    31.84143    21.61059    
H           76.91       30.36       22.53       
N           75.88       30.19       20.74       
C           75.01       29.64       18.78       
C           74.82       30.44       19.9        
C           79.36       25.64       16.88       
C           79.75       26.45       17.95       
S           77.75       25.96       16.33       
H           78.9        28.11       18.95       
H           80.74       26.55       18.34       
C           78.69       27.32       18.32       
C           77.56       27.24       17.52       
C           82.15       23.33       15.32       
C           80.91       22.81       14.96       
S           81.87       24.64       16.42       
H           78.8        23.3        15.15       
H           80.75       21.91       14.31       
C           79.79       23.56       15.45       
C           80.13       24.64       16.24       
C           86.02       22.68       14.86       
C           85.33       21.84       13.95       
S           84.86       23.54       15.81       
H           83.23       21.43       13.33       
H           85.92       21.17       13.31       
C           83.88       21.89       14.03       
C           83.43       22.83       14.96       
C           90.68       21.3        14.56       
C           89.74       22.13       15.08       
N           90.03       20.51       13.58       
C           88.63       20.8        13.58       
C           89.5        23.24       15.94       
O           90.25       23.76       16.74       
O           87.79       20.25       12.83       
C           87.71       24.98       16.29       
C           90.6        19.54       12.68       
H           90.11119    18.56957    12.76626    
H           91.57       19.21       12.96       
H           90.56       19.93       11.67       
H           86.85       24.87       16.9        
H           87.61061    25.66154    15.44518    
H           88.54       25.31       16.85       
N           88.13       23.7        15.8        
C           88.48       21.86       14.56       
C           87.43       22.69       15.14       
C           94.58       20.93       15.18       
C           94.19       22.18       15.55       
S           93.18       20.0        14.66       
H           92.2        23.14       15.74       
H           94.78       22.88       16.11       
C           92.76       22.27       15.46       
C           92.07       21.3        14.82       
C           97.62       18.42       15.09       
C           98.01       19.5        15.81       
S           95.99       18.69       14.51       
H           97.22       21.53       16.33       
H           98.96       19.63       16.26       
C           97.07       20.56       15.9        
C           95.9        20.26       15.19       
C           98.75       14.85       13.99       
C           99.16       14.98       15.3        
S           98.01       16.26       13.46       
H           98.96       16.62       16.75       
H           99.63       14.3        15.92       
C           98.77       16.25       15.8        
C           98.11       17.05       14.95       
C           98.31       10.07       13.6        
C           98.42       11.25       12.95       
N           98.3        10.38       14.95       
C           98.5        11.72       15.23       
C           98.53       11.89       11.62       
O           98.58       11.39       10.46       
O           98.61       12.12       16.35       
C           99.25       14.21       10.91       
C           98.09       9.5         16.13       
H           97.1069     9.72687     16.54249    
H           98.72       9.68        16.99       
H           98.21       8.42        15.81       
H           100.06      14.81       11.21       
H           98.47421    14.81903    10.44597    
H           99.5        13.62       10.1        
N           98.73       13.29       11.95       
C           98.58       12.31       13.91       
C           98.61       13.56       13.28       
C           98.31       6.31        12.24       
C           98.89       7.16        11.34       
S           97.82       7.24        13.62       
H           99.37       9.24        10.99       
H           99.11       6.81        10.35       
C           98.97       8.55        11.72       
C           98.43       8.79        12.98       
C           97.35       2.68        11.36       
C           96.86       2.87        12.61       
S           98.12       4.07        10.71       
H           96.99       4.46        14.14       
H           96.19       2.16        13.09       
C           97.3        4.15        13.14       
C           97.93       4.9         12.18       
C           97.01       0.15        8.32        
C           96.19       -0.2        9.33        
S           97.65       1.69        8.77        
H           95.75       0.19        11.39       
H           95.61       -1.09       9.16        
C           96.23       0.57        10.49       
C           97.04       1.69        10.42       
C           97.8        -0.01       3.68        
C           97.67       -0.67       4.83        
N           97.7        1.33        3.99        
C           97.41       1.55        5.38        
C           97.56       -2.03       5.36        
O           97.73       -3.16       4.88        
O           97.08       2.6         5.8         
C           97.67       -2.81       7.78        
C           98.03       2.57        3.2         
H           98.99902    2.96173     3.50926     
H           97.22       3.27        3.44        
H           97.92       2.43        2.16        
H           96.97       -2.78       8.59        
H           98.73131    -2.8949     8.01349     
H           97.39       -3.73       7.24        
N           97.42       -1.81       6.79        
C           97.41       0.16        5.89        
C           97.15       -0.5        7.03        
C           98.09       -1.22       -0.06       
C           98.5        -2.27       0.82        
S           97.55       0.13        0.85        
H           99.01       -2.47       2.97        
H           98.83       -3.24       0.53        
C           98.6        -1.83       2.13        
C           98.08       -0.54       2.38        
C           97.92       -1.78       -4.0        
C           98.22       -0.51       -3.75       
S           97.72       -2.6        -2.47       
H           98.47       0.84        -2.07       
H           98.47       0.2         -4.55       
C           98.16       -0.12       -2.38       
C           98.03       -1.19       -1.51       
C           99.01       -3.38       -7.37       
C           97.82       -3.95       -6.96       
S           99.42       -2.19       -6.19       
H           96.39       -3.65       -5.21       
H           97.35       -4.68       -7.51       
C           97.31       -3.42       -5.75       
C           98.03       -2.46       -5.22       
C           99.86       -5.79       -11.54      
C           100.32      -4.92       -10.52      
N           98.51       -6.02       -11.34      
C           98.11       -5.37       -10.09      
C           101.49      -4.18       -10.1       
O           102.6       -4.04       -10.65      
O           96.95       -5.37       -9.78       
C           102.08      -2.73       -8.15       
C           97.72       -7.17       -11.74      
H           96.78662    -6.82993    -12.1886    
H           97.56       -7.87       -10.94      
H           98.3        -7.74       -12.48      
H           102.09      -3.11       -7.06       
H           101.98655   -1.65175    -8.27939    
H           103.06      -3.04       -8.52       
N           101.06      -3.45       -8.97       
C           99.3        -4.59       -9.62       
C           99.75       -3.76       -8.58       
C           101.34      -6.78       -15.05      
C           102.29      -6.46       -14.18      
S           99.88       -6.57       -14.16      
H           102.65      -5.9        -12.09      
H           103.32      -6.31       -14.55      
C           101.93      -6.24       -12.78      
C           100.61      -6.27       -12.61      
C           102.26      -7.68       -18.8       
C           100.88      -7.76       -18.62      
S           102.93      -7.21       -17.29      
H           99.36       -7.51       -17.11      
H           100.25      -8.01       -19.47      
C           100.4       -7.5        -17.32      
C           101.39      -7.18       -16.46      
C           104.58      -8.86       -21.95      
C           105.3       -8.0        -21.17      
S           102.94      -8.91       -21.36      
H           104.97      -7.12       -19.18      
H           106.31      -7.69       -21.43      
C           104.54      -7.7        -20.01      
C           103.22      -7.99       -19.91      
C           107.28      -9.28       -25.92      
C           106.33      -9.71       -25.09      
N           108.0       -8.38       -25.18      
C           107.28      -7.98       -23.97      
C           105.31      -10.79      -25.09      
O           105.02      -11.65      -25.89      
O           107.58      -7.01       -23.33      
C           103.45      -11.4       -23.45      
C           109.39      -7.95       -25.28      
H           109.9926    -8.35917    -24.4691    
H           109.5       -6.85       -25.21      
H           109.96      -8.21       -26.12      
H           102.57      -10.77      -23.22      
H           103.69284   -12.09382   -22.64517   
H           103.18      -12.13      -24.25      
N           104.51      -10.48      -23.91      
C           106.1       -8.92       -23.93      
C           105.0       -9.34       -23.25      
C           108.76      -10.36      -29.34      
C           108.2       -11.45      -28.75      
S           108.65      -9.0        -28.31      
H           107.16      -11.84      -26.88      
H           108.19      -12.45      -29.24      
C           107.66      -11.15      -27.51      
C           107.76      -9.89       -27.08      
C           109.69      -10.75      -33.19      
C           110.38      -9.66       -32.64      
S           108.8       -11.52      -31.92      
H           110.27      -8.56       -30.72      
H           111.01      -9.02       -33.19      
C           110.01      -9.37       -31.27      
C           109.23      -10.31      -30.72      
C           111.08      -12.46      -36.38      
C           109.77      -12.82      -36.26      
S           111.54      -11.46      -34.99      
H           108.05      -12.61      -34.9       
H           109.28      -13.51      -36.95      
C           109.08      -12.26      -35.13      
C           109.87      -11.4       -34.44      
C           114.42      -12.55      -39.69      
C           113.54      -13.26      -39.0       
N           114.29      -11.23      -39.34      
C           113.26      -11.01      -38.37      
C           113.08      -14.6       -38.66      
O           113.43      -15.72      -39.04      
O           112.85      -9.84       -38.0       
C           111.64      -15.67      -36.99      
C           115.29      -10.22      -39.45      
H           115.68993   -9.88903    -38.49156   
H           114.92      -9.29       -39.93      
H           116.07      -10.59      -40.03      
H           110.66      -15.47      -36.72      
H           112.22821   -15.99525   -36.13191   
H           111.62      -16.4       -37.79      
N           112.14      -14.44      -37.62      
C           112.87      -12.38      -38.05      
C           111.98      -13.11      -37.31      
C           116.88      -13.61      -42.7       
C           116.44      -14.69      -42.04      
S           116.04      -12.25      -42.1       
H           115.21      -15.18      -40.26      
H           116.8       -15.69      -42.31      
C           115.63      -14.42      -40.95      
C           115.33      -13.04      -40.72      
C           118.88      -12.91      -46.01      
C           118.14      -14.07      -46.11      
S           118.72      -12.18      -44.41      
H           116.82      -15.24      -44.91      
H           117.98      -14.57      -47.01      
C           117.53      -14.44      -44.9       
C           117.74      -13.55      -43.86      
C           120.83      -10.49      -48.39      
C           120.75      -11.71      -49.03      
S           120.27      -10.65      -46.79      
H           119.81      -13.67      -48.65      
H           121.12      -11.86      -50.04      
C           120.03      -12.66      -48.26      
C           119.7       -12.25      -47.01      
C           123.28      -8.01       -51.68      
C           122.55      -8.09       -50.55      
N           123.83      -9.28       -51.78      
C           123.23      -10.19      -50.81      
C           121.75      -7.16       -49.71      
O           121.41      -6.0        -49.84      
O           123.49      -11.37      -50.82      
C           119.92      -7.6        -48.01      
C           125.13      -9.72       -52.29      
H           125.89327   -9.19482    -51.7158    
H           125.31      -10.74      -52.16      
H           125.26      -9.41       -53.31      
H           120.02      -8.04       -47.04      
H           118.93896   -7.83254    -48.42422   
H           120.03      -6.54       -47.94      
N           121.02      -7.99       -48.84      
C           122.34      -9.41       -50.05      
C           121.47      -9.36       -48.99      
C           124.96      -4.74       -53.14      
C           124.8       -5.64       -54.13      
S           124.32      -5.37       -51.65      
H           124.06      -7.68       -54.39      
H           125.2       -5.55       -55.14      
C           124.14      -6.8        -53.73      
C           123.7       -6.82       -52.41      
C           127.31      -1.7        -53.59      
C           126.7       -1.58       -52.4       
S           126.84      -3.15       -54.38      
H           125.12      -2.45       -51.13      
H           126.92      -0.69       -51.83      
C           125.66      -2.58       -52.11      
C           125.73      -3.54       -53.06      
C           129.52      0.79        -55.62      
C           130.13      -0.42       -55.49      
S           128.12      0.78        -54.51      
H           129.89      -2.39       -54.51      
H           130.96      -0.77       -56.11      
C           129.5       -1.41       -54.72      
C           128.34      -0.94       -54.17      
C           133.08      3.14        -57.67      
C           131.72      3.09        -57.46      
N           133.72      1.93        -57.31      
C           132.76      1.05        -56.78      
C           130.44      3.78        -57.62      
O           130.04      4.9         -58.01      
O           133.08      0.03        -56.28      
C           128.15      3.09        -57.15      
C           135.02      1.38        -57.62      
H           135.51925   1.12324     -56.68569   
H           135.52      2.07        -58.23      
H           134.9       0.55        -58.29      
H           127.5       2.98        -56.27      
H           127.81384   2.4457      -57.96238   
H           128.05      4.13        -57.57      
N           129.58      2.92        -56.86      
C           131.54      1.88        -56.7       
C           130.22      1.88        -56.27      
C           135.19      6.07        -59.17      
C           133.88      6.24        -59.51      
S           135.35      4.71        -58.1       
H           132.07      5.03        -59.25      
H           133.59      7.07        -60.1       
C           133.07      5.17        -59.04      
C           133.74      4.2         -58.32      
C           138.73      7.38        -59.94      
C           137.92      8.45        -60.35      
S           137.83      6.12        -59.14      
H           135.7       8.64        -60.54      
H           138.25      9.39        -60.79      
C           136.53      8.08        -60.17      
C           136.32      6.88        -59.55      
C           142.53      6.55        -60.14      
C           142.42      7.8         -59.63      
S           140.98      5.93        -60.48      
H           140.71      9.24        -59.21      
H           143.26      8.39        -59.39      
C           141.06      8.27        -59.6       
C           140.14      7.33        -59.88      
H           62.43       41.83       20.1        
H           143.49      6.04        -60.32      
