392

C           66.65       34.95       7.43        
C           67.52       35.9        7.93        
N           66.38       34.12       8.48        
C           66.92       34.61       9.75        
C           68.26       37.11       7.61        
O           68.47       37.66       6.53        
O           66.69       34.16       10.81       
C           70.05       38.24       8.9         
C           65.3        33.14       8.68        
H           64.38366    33.59462    9.05648     
H           65.58       32.4        9.39        
H           65.13       32.63       7.76        
H           70.8        37.78       9.55        
H           69.92051    39.29751    9.13021     
H           70.38       38.09       7.85        
N           68.82       37.51       8.9         
C           67.74       35.68       9.36        
C           68.44       36.66       9.94        
C           65.03       34.38       3.81        
C           65.43       35.65       3.96        
S           65.56       33.54       5.24        
H           66.49       36.94       5.42        
H           65.24       36.4        3.22        
C           66.09       35.98       5.21        
C           66.04       34.98       6.1         
C           63.99       31.76       1.18        
C           63.69       32.92       0.59        
S           64.94       31.95       2.6         
H           63.89       35.07       0.99        
H           63.16       33.04       -0.32       
C           64.08       34.03       1.36        
C           64.59       33.63       2.65        
C           63.81       28.38       -1.01       
C           63.8        28.08       0.32        
S           63.93       30.08       -1.16       
H           63.81       29.08       2.31        
H           63.67       27.06       0.63        
C           63.76       29.16       1.18        
C           63.88       30.41       0.57        
C           65.93       24.49       -3.02       
C           65.24       25.67       -3.18       
N           65.97       24.17       -1.65       
C           65.39       25.23       -0.9        
C           64.76       26.66       -4.24       
O           64.86       26.7        -5.4        
O           65.35       25.25       0.31        
C           63.5        28.76       -4.15       
C           66.7        23.12       -0.9        
H           66.00547    22.40354    -0.46135    
H           67.26       23.56       -0.06       
H           67.5        22.7        -1.48       
H           63.69       29.78       -3.78       
H           62.42694    28.59168    -4.24117    
H           63.87       28.76       -5.13       
N           64.18       27.7        -3.48       
C           64.88       26.19       -1.9        
C           64.24       27.44       -2.09       
C           67.76       21.98       -5.57       
C           66.79       22.7        -6.28       
S           67.6        22.44       -3.92       
H           65.22       24.13       -5.86       
H           66.65       22.59       -7.37       
C           66.03       23.58       -5.45       
C           66.39       23.67       -4.15       
C           70.54       19.26       -6.14       
C           69.42       18.92       -6.85       
S           70.13       20.77       -5.3        
H           67.59       19.82       -7.49       
H           69.3        18.04       -7.42       
C           68.42       19.93       -6.89       
C           68.61       20.93       -6.01       
C           73.91       17.69       -4.99       
C           73.24       16.73       -5.79       
S           72.91       19.13       -4.74       
H           71.27       16.52       -6.78       
H           73.68       15.74       -6.02       
C           71.93       17.16       -6.13       
C           71.6        18.42       -5.67       
C           77.69       15.58       -2.98       
C           77.07       16.74       -3.34       
N           77.03       14.53       -3.62       
C           75.75       14.99       -4.1        
C           77.11       18.15       -3.15       
O           77.78       18.91       -2.51       
O           74.93       14.21       -4.55       
C           75.87       20.05       -4.21       
C           77.73       13.55       -4.48       
H           77.772      13.90701    -5.50902    
H           77.25       12.59       -4.36       
H           78.77       13.51       -4.19       
H           74.92       20.46       -4.26       
H           76.50396    20.26836    -5.06937    
H           76.35       20.55       -3.41       
N           76.0        18.63       -3.96       
C           75.81       16.46       -4.02       
C           75.17       17.61       -4.35       
C           80.68       14.54       -0.68       
C           80.92       15.76       -1.3        
S           79.18       13.93       -1.3        
H           79.94       17.17       -2.65       
H           81.86       16.31       -1.06       
C           79.93       16.23       -2.19       
C           78.92       15.34       -2.35       
C           83.05       12.58       1.64        
C           81.84       12.04       1.83        
S           83.04       14.03       0.62        
H           79.78       12.49       1.06        
H           81.66       11.13       2.48        
C           80.85       12.74       1.03        
C           81.34       13.75       0.29        
C           85.8        10.75       3.84        
C           86.3        11.82       3.13        
S           84.17       10.63       3.2         
H           85.73       13.53       1.82        
H           87.37       12.01       3.18        
C           85.4        12.65       2.37        
C           84.16       12.11       2.33        
C           89.4        7.65        3.1         
C           88.3        8.04        3.84        
N           89.37       8.46        1.94        
C           88.27       9.4         1.98        
C           87.58       7.75        5.11        
O           87.6        6.94        6.01        
O           88.04       10.25       1.14        
C           85.5        8.84        6.14        
C           89.99       8.3         0.66        
H           89.26351    7.79491     0.02345     
H           90.96       7.74        0.65        
H           90.07       9.25        0.2         
H           84.58       9.07        5.69        
H           85.81237    9.53738     6.91729     
H           85.4        7.88        6.6         
N           86.48       8.7         5.04        
C           87.62       9.16        3.22        
C           86.56       9.54        3.98        
C           92.41       5.19        3.89        
C           91.28       4.75        4.52        
S           92.02       6.62        2.95        
H           89.16       5.37        4.81        
H           91.32       3.87        5.11        
C           90.15       5.59        4.36        
C           90.3        6.53        3.39        
C           95.6        2.98        3.88        
C           96.01       4.27        3.97        
S           93.85       2.91        3.85        
H           95.12       6.32        4.06        
H           97.07       4.53        4.12        
C           94.94       5.25        3.96        
C           93.71       4.62        3.85        
C           97.01       -0.67       3.08        
C           98.03       0.22        3.33        
S           95.47       0.28        3.29        
H           98.29       2.39        3.76        
H           99.07       -0.08       3.13        
C           97.65       1.5         3.68        
C           96.3        1.71        3.71        
C           99.81       -4.39       1.59        
C           98.47       -3.87       1.68        
N           100.63      -3.52       2.21        
C           99.87       -2.44       2.78        
C           97.06       -3.96       1.21        
O           96.45       -4.69       0.44        
O           100.43      -1.67       3.52        
C           94.88       -2.69       1.98        
C           101.91      -3.1        1.63        
H           101.85199   -2.17903    1.04986     
H           102.34      -3.91       1.03        
H           102.5       -2.9        2.42        
H           94.52       -1.72       1.58        
H           94.43464    -2.99398    2.92728     
H           94.57       -3.31       1.09        
N           96.36       -2.87       1.95        
C           98.5        -2.64       2.48        
C           97.26       -2.02       2.54        
C           101.01      -7.98       0.59        
C           99.81       -7.7        -0.07       
S           101.53      -6.57       1.49        
H           98.29       -6.01       0.02        
H           99.34       -8.51       -0.68       
C           99.25       -6.43       0.25        
C           100.15      -5.66       0.98        
C           102.13      -11.68      0.48        
C           103.26      -10.95      0.53        
S           100.73      -10.65      0.34        
H           103.84      -8.88       0.44        
H           104.29      -11.32      0.42        
C           103.05      -9.57       0.54        
C           101.72      -9.23       0.6         
C           102.55      -15.64      0.45        
C           101.29      -15.33      0.9         
S           103.27      -14.1       0.08        
H           100.22      -13.53      1.64        
H           100.7       -16.13      1.3         
C           101.03      -13.91      1.06        
C           101.99      -13.06      0.58        
C           103.38      -20.35      1.61        
C           103.73      -19.22      0.88        
N           102.5       -19.88      2.58        
C           102.1       -18.56      2.27        
C           104.52      -18.74      -0.19       
O           105.44      -19.3       -0.67       
O           101.24      -18.02      2.89        
C           105.31      -16.59      -1.04       
C           102.31      -20.44      3.92        
H           102.72162   -19.7516    4.65808     
H           102.95      -21.32      4.09        
H           101.29      -20.75      4.08        
H           105.74      -15.76      -0.5        
H           104.95061   -16.32222   -2.0336     
H           106.21      -17.09      -1.04       
N           104.36      -17.33      -0.27       
C           102.92      -18.1       1.21        
C           103.2       -16.99      0.42        
C           104.3       -24.11      1.31        
C           104.55      -23.56      0.11        
S           103.42      -23.07      2.35        
H           104.48      -21.52      -0.75       
H           105.11      -24.11      -0.66       
C           104.39      -22.15      0.1         
C           103.72      -21.73      1.27        
C           106.13      -27.44      1.87        
C           104.97      -27.47      2.68        
S           106.29      -25.84      1.08        
H           103.3       -26.09      3.05        
H           104.7       -28.3       3.34        
C           104.24      -26.22      2.52        
C           104.77      -25.36      1.66        
C           108.82      -30.05      0.81        
C           108.06      -30.61      1.82        
S           108.32      -28.4       0.46        
H           106.34      -29.89      3.0         
H           108.2       -31.6       2.24        
C           107.03      -29.69      2.21        
C           107.06      -28.48      1.65        
C           112.2       -33.45      0.59        
C           111.59      -32.34      0.02        
N           111.47      -33.66      1.82        
C           110.54      -32.61      2.08        
C           111.63      -31.45      -1.08       
O           112.32      -31.36      -2.08       
O           110.1       -32.55      3.22        
C           110.38      -29.27      -1.76       
C           111.28      -34.99      2.37        
H           110.28911   -35.36338   2.11151     
H           111.5       -34.94      3.47        
H           111.99      -35.76      1.92        
H           110.45      -28.33      -1.24       
H           109.50565   -29.29098   -2.41052    
H           111.33      -29.09      -2.42       
N           110.6       -30.4       -0.84       
C           110.53      -31.83      0.85        
C           109.97      -30.68      0.36        
C           115.83      -34.58      0.02        
C           115.23      -34.28      -1.19       
S           114.67      -34.55      1.27        
H           113.22      -33.73      -1.94       
H           115.75      -34.34      -2.14       
C           113.85      -33.97      -1.08       
C           113.36      -34.13      0.17        
C           119.73      -35.08      0.34        
C           119.18      -35.78      1.34        
S           118.5       -34.19      -0.5        
H           117.24      -36.29      2.09        
H           119.7       -36.38      2.02        
C           117.74      -35.75      1.31        
C           117.21      -34.88      0.39        
C           123.29      -34.17      -0.92       
C           123.34      -34.25      0.43        
S           121.73      -34.65      -1.43       
H           122.09      -34.56      2.13        
H           124.29      -33.99      0.86        
C           122.16      -34.62      1.07        
C           121.18      -34.82      0.2         
C           127.91      -33.04      -2.14       
C           126.57      -33.17      -2.52       
N           128.06      -33.61      -0.87       
C           126.81      -34.01      -0.39       
C           125.59      -32.92      -3.54       
O           125.68      -32.4       -4.58       
O           126.64      -34.45      0.71        
C           123.2       -32.55      -3.61       
C           129.28      -34.11      -0.29       
H           129.49675   -35.09261   -0.70905    
H           129.04      -34.24      0.75        
H           130.07      -33.4       -0.47       
H           122.58      -32.14      -2.86       
H           122.58793   -33.11167   -4.31569    
H           123.59      -31.59      -3.9        
N           124.26      -33.28      -3.0        
C           125.8       -33.79      -1.45       
C           124.41      -33.89      -1.75       
C           130.71      -31.12      -4.02       
C           129.81      -31.6       -4.91       
S           130.15      -31.5       -2.4        
H           128.04      -33.05      -4.99       
H           129.99      -31.54      -5.97       
C           128.82      -32.53      -4.38       
C           128.87      -32.57      -3.0        
C           133.18      -28.49      -5.55       
C           133.36      -28.62      -4.21       
S           131.97      -29.64      -5.98       
H           132.85      -29.86      -2.44       
H           134.1       -28.07      -3.68       
C           132.63      -29.57      -3.49       
C           131.75      -30.19      -4.38       
C           134.0       -26.17      -8.67       
C           134.43      -25.55      -7.55       
S           133.15      -27.62      -8.23       
H           134.66      -25.9       -5.4        
H           134.99      -24.62      -7.56       
C           134.27      -26.32      -6.36       
C           133.64      -27.52      -6.53       
C           133.71      -22.63      -11.72      
C           133.75      -23.97      -11.54      
N           133.7       -21.98      -10.54      
C           133.71      -22.95      -9.46       
C           133.97      -25.24      -12.25      
O           134.04      -25.55      -13.43      
O           133.51      -22.67      -8.28       
C           134.11      -27.63      -11.42      
C           134.11      -20.6       -10.16      
H           135.19279   -20.47506   -10.16694   
H           133.76      -19.9       -10.92      
H           133.65      -20.35      -9.17       
H           133.5       -28.24      -10.75      
H           135.16699   -27.87615   -11.52136   
H           133.57      -27.71      -12.38      
N           133.93      -26.19      -11.17      
C           133.81      -24.26      -10.12      
C           133.95      -25.58      -9.93       
C           133.05      -20.98      -15.2       
C           133.97      -21.88      -15.29      
S           132.7       -20.73      -13.52      
H           135.03      -23.35      -14.02      
H           134.35      -22.15      -16.26      
C           134.35      -22.53      -14.09      
C           133.76      -22.01      -13.01      
C           130.78      -18.91      -17.56      
C           131.76      -19.59      -18.26      
S           130.92      -19.34      -15.91      
H           133.65      -20.83      -17.9       
H           131.65      -19.58      -19.34      
C           132.73      -20.27      -17.51      
C           132.4       -20.22      -16.21      
C           127.56      -16.77      -18.47      
C           127.72      -17.73      -19.42      
S           128.97      -16.79      -17.43      
H           129.1       -19.54      -19.85      
H           127.01      -17.9       -20.14      
C           128.89      -18.59      -19.24      
C           129.64      -18.25      -18.13      
C           124.12      -14.16      -20.72      
C           124.91      -14.42      -19.54      
N           124.57      -15.14      -21.66      
C           125.76      -15.75      -21.17      
C           125.13      -14.07      -18.19      
O           124.69      -13.15      -17.51      
O           126.47      -16.46      -21.84      
C           126.32      -15.03      -16.27      
C           123.85      -15.94      -22.69      
H           123.309     -16.8056    -22.30769   
H           124.54      -16.24      -23.55      
H           123.12      -15.35      -23.21      
H           127.35      -15.17      -16.11      
H           125.78404   -15.76085   -15.66444   
H           126.2       -14.09      -15.79      
N           126.03      -15.01      -17.66      
C           125.85      -15.5       -19.77      
C           126.56      -15.78      -18.62      
C           121.36      -11.6       -21.65      
C           121.44      -11.64      -20.21      
S           122.32      -12.91      -22.29      
H           122.77      -12.53      -18.76      
H           120.88      -10.94      -19.57      
C           122.46      -12.47      -19.77      
C           123.04      -13.22      -20.77      
C           119.44      -8.94       -23.66      
C           119.66      -10.06      -24.46      
S           120.11      -9.29       -22.06      
H           120.7       -12.05      -24.42      
H           119.35      -10.16      -25.52      
C           120.38      -11.12      -23.9       
C           120.63      -10.82      -22.61      
C           117.92      -5.9        -25.37      
C           117.92      -5.65       -24.02      
S           118.63      -7.45       -25.7       
H           118.57      -6.75       -22.19      
H           117.39      -4.71       -23.64      
C           118.49      -6.69       -23.26      
C           118.85      -7.7        -24.0       
H           68.99       36.55       10.9        
H           117.85      -5.11       -26.14      
