392

C           51.06       22.25       1.47        
C           50.01       22.86       2.1         
N           52.21       22.4        2.24        
C           51.86       23.25       3.4         
C           48.56       23.23       2.01        
O           47.74       23.1        1.2         
O           52.74       23.67       4.13        
C           46.88       24.41       3.51        
C           53.28       21.41       2.33        
H           53.32376    21.03078    3.35097     
H           54.27       21.63       2.01        
H           52.96       20.54       1.8         
H           46.88       25.51       3.36        
H           46.50589    24.17001    4.50526     
H           46.22       24.16       2.73        
N           48.21       23.83       3.27        
C           50.45       23.37       3.34        
C           49.37       23.9        4.01        
C           51.29       20.19       -2.02       
C           50.04       20.71       -1.83       
S           52.31       20.84       -0.74       
H           48.94       21.69       -0.15       
H           49.18       20.63       -2.44       
C           49.89       21.41       -0.58       
C           50.99       21.52       0.2         
C           53.03       17.84       -4.51       
C           51.86       18.25       -5.09       
S           53.26       18.59       -3.0        
H           50.18       19.59       -4.52       
H           51.52       17.88       -6.04       
C           51.14       19.15       -4.3        
C           51.77       19.4        -3.1        
C           55.26       15.48       -6.59       
C           55.41       15.06       -5.26       
S           54.26       16.94       -6.67       
H           54.95       15.98       -3.34       
H           56.09       14.37       -4.97       
C           54.75       16.01       -4.41       
C           53.95       16.86       -5.02       
C           58.63       13.11       -9.01       
C           57.43       13.74       -9.04       
N           58.92       12.84       -7.64       
C           58.04       13.47       -6.73       
C           56.33       14.16       -9.93       
O           56.06       13.92       -11.06      
O           58.27       13.45       -5.49       
C           53.93       14.82       -9.31       
C           59.82       11.9        -6.92       
H           59.24853    11.16328    -6.35541    
H           60.58       12.4        -6.3        
H           60.48       11.27       -7.6        
H           53.47       15.77       -8.94       
H           53.32618    14.00555    -8.90979    
H           53.89       14.76       -10.37      
N           55.36       14.7        -8.99       
C           57.07       14.05       -7.68       
C           55.94       14.88       -7.72       
C           61.52       12.53       -11.64      
C           60.33       12.98       -12.32      
S           61.2        12.45       -9.92       
H           58.25       13.4        -11.59      
H           60.15       13.02       -13.42      
C           59.23       13.15       -11.37      
C           59.55       12.9        -10.08      
C           65.33       11.89       -12.14      
C           64.79       11.99       -13.34      
S           64.11       12.26       -10.96      
H           62.77       12.23       -14.24      
H           65.39       11.82       -14.25      
C           63.41       12.21       -13.36      
C           62.83       12.29       -12.12      
C           68.67       11.17       -10.28      
C           69.04       11.53       -11.59      
S           66.98       11.0        -10.1       
H           67.86       12.45       -13.25      
H           70.04       11.68       -12.05      
C           67.85       12.01       -12.25      
C           66.67       11.59       -11.67      
C           72.77       9.54        -8.27       
C           71.45       9.91        -8.11       
N           73.01       9.64        -9.64       
C           71.81       9.81        -10.39      
C           70.42       10.16       -7.13       
O           70.41       10.1        -5.95       
O           71.69       9.8         -11.54      
C           68.27       11.5        -7.1        
C           74.28       10.06       -10.31      
H           74.28       11.14282    -10.43494   
H           74.5        9.59        -11.28      
H           75.12       9.81        -9.67       
H           67.29       11.31       -7.51       
H           68.54102    12.55555    -7.1214     
H           68.29       11.09       -6.07       
N           69.3        10.77       -7.85       
C           70.86       10.21       -9.33       
C           69.54       10.63       -9.19       
C           75.66       8.12        -5.92       
C           74.46       8.18        -5.22       
S           75.34       8.5         -7.58       
H           72.39       8.83        -5.46       
H           74.34       8.0         -4.16       
C           73.33       8.74        -5.95       
C           73.67       8.99        -7.27       
C           79.44       7.5         -5.2        
C           78.77       6.9         -4.18       
S           78.31       8.33        -6.15       
H           76.72       6.39        -3.61       
H           79.27       6.33        -3.41       
C           77.33       6.91        -4.32       
C           76.92       7.68        -5.41       
C           83.42       8.12        -5.2        
C           82.94       8.38        -6.43       
S           82.03       7.57        -4.24       
H           80.94       8.49        -7.52       
H           83.63       8.79        -7.12       
C           81.48       8.24        -6.59       
C           80.85       7.65        -5.46       
C           88.08       8.12        -5.58       
C           87.05       8.39        -4.79       
N           87.59       7.42        -6.75       
C           86.2        7.43        -6.78       
C           86.5        9.1         -3.57       
O           87.07       9.71        -2.72       
O           85.52       6.98        -7.73       
C           84.32       9.35        -2.48       
C           88.31       6.43        -7.51       
H           88.45783    5.57115     -6.8553     
H           89.23       6.7         -7.91       
H           87.76       6.0         -8.31       
H           83.46       8.8         -2.29       
H           84.18353    10.42738    -2.38663    
H           84.88       9.2         -1.59       
N           85.13       8.86        -3.63       
C           85.83       8.01        -5.52       
C           84.79       8.26        -4.78       
C           91.86       9.39        -5.1        
C           91.09       9.53        -3.99       
S           90.86       8.65        -6.3        
H           89.07       8.97        -3.22       
H           91.53       9.92        -3.08       
C           89.83       8.94        -4.04       
C           89.48       8.52        -5.29       
C           95.73       8.84        -4.62       
C           95.56       9.54        -5.83       
S           94.19       8.8         -3.87       
H           93.83       10.07       -7.13       
H           96.4        9.71        -6.45       
C           94.16       9.77        -6.17       
C           93.28       9.46        -5.17       
C           98.42       7.47        -2.1        
C           99.01       7.61        -3.35       
S           96.78       7.92        -2.26       
H           98.53       8.29        -5.4        
H           100.09      7.39        -3.58       
C           98.16       8.07        -4.39       
C           96.92       8.44        -3.89       
C           101.7       5.15        0.66        
C           100.46      5.84        0.56        
N           102.27      5.26        -0.58       
C           101.4       6.0         -1.44       
C           99.24       6.04        1.31        
O           98.88       5.8         2.47        
O           101.67      6.04        -2.63       
C           97.23       7.34        0.87        
C           103.52      4.73        -1.12       
H           104.19866   5.51254     -1.45933    
H           103.38      4.05        -1.95       
H           104.08      4.16        -0.35       
H           96.4        6.98        0.26        
H           97.21622    8.42852     0.92511     
H           96.94       6.95        1.86        
N           98.44       6.77        0.37        
C           100.24      6.37        -0.72       
C           99.01       6.92        -0.87       
C           102.61      2.75        3.45        
C           101.99      3.72        4.14        
S           103.13      3.14        1.9         
H           101.09      5.58        3.54        
H           101.63      3.72        5.19        
C           101.66      4.77        3.22        
C           102.17      4.58        1.91        
C           103.76      -0.87       4.42        
C           103.69      -0.04       5.5         
S           103.32      0.04        3.01        
H           103.19      2.02        6.04        
H           103.93      -0.4        6.45        
C           103.24      1.26        5.29        
C           103.01      1.44        3.96        
C           104.68      -4.64       3.58        
C           105.24      -4.37       4.84        
S           103.76      -3.25       3.06        
H           105.52      -2.53       6.16        
H           105.75      -5.08       5.44        
C           105.06      -2.96       5.18        
C           104.31      -2.22       4.34        
C           105.81      -9.25       2.87        
C           105.19      -8.07       2.47        
N           106.12      -9.03       4.2         
C           105.71      -7.7        4.65        
C           104.61      -7.4        1.34        
O           104.64      -7.8        0.14        
O           105.96      -7.24       5.72        
C           104.64      -5.09       0.5         
C           106.87      -9.82       5.17        
H           106.26907   -10.54402   5.72025     
H           107.36      -9.08       5.9         
H           107.72      -10.36      4.79        
H           105.23      -4.21       0.72        
H           103.70801   -4.89231    -0.02954    
H           105.26      -5.62       -0.19       
N           104.54      -6.07       1.59        
C           105.1       -7.09       3.46        
C           104.65      -5.91       2.91        
C           106.86      -12.69      1.28        
C           106.05      -12.03      0.4         
S           107.06      -11.73      2.76        
H           104.87      -10.12      0.33        
H           105.79      -12.41      -0.56       
C           105.56      -10.74      0.9         
C           106.05      -10.44      2.16        
C           109.46      -15.47      0.83        
C           108.32      -15.96      0.18        
S           109.18      -14.02      1.65        
H           106.22      -15.08      -0.23       
H           108.24      -16.89      -0.41       
C           107.22      -14.98      0.32        
C           107.54      -13.94      1.16        
C           112.89      -17.14      -0.14       
C           113.1       -15.91      0.48        
S           111.15      -17.43      -0.13       
H           111.84      -14.44      1.68        
H           114.11      -15.42      0.49        
C           111.89      -15.35      1.09        
C           110.78      -15.99      0.79        
C           116.79      -17.49      -2.81       
C           115.69      -18.08      -2.33       
N           116.65      -16.16      -2.56       
C           115.38      -15.85      -1.89       
C           115.17      -19.39      -2.11       
O           115.59      -20.52      -2.31       
O           115.02      -14.67      -1.77       
C           113.48      -20.16      -0.55       
C           117.84      -15.28      -2.38       
H           117.99443   -14.93438   -1.35785    
H           117.83      -14.45      -3.06       
H           118.69      -15.96      -2.59       
H           112.39      -20.19      -0.86       
H           113.72023   -20.30838   0.50279     
H           113.76      -21.01      -1.15       
N           114.12      -19.08      -1.15       
C           114.83      -17.11      -1.71       
C           113.79      -17.73      -1.07       
C           119.45      -18.98      -5.29       
C           119.19      -19.91      -4.39       
S           118.48      -17.55      -4.98       
H           117.98      -20.05      -2.58       
H           119.73      -20.89      -4.41       
C           118.31      -19.47      -3.43       
C           117.86      -18.16      -3.55       
C           121.36      -19.13      -8.66       
C           121.96      -20.04      -7.81       
S           120.05      -18.28      -7.85       
H           121.69      -20.71      -5.75       
H           122.69      -20.8       -8.21       
C           121.32      -20.03      -6.59       
C           120.33      -19.17      -6.41       
C           122.1       -17.12      -11.92      
C           122.91      -18.21      -11.87      
S           120.97      -17.14      -10.55      
H           123.19      -20.02      -10.68      
H           123.63      -18.47      -12.61      
C           122.59      -19.14      -10.87      
C           121.63      -18.68      -9.98       
C           124.3       -14.49      -15.21      
C           123.16      -14.8       -14.47      
N           125.36      -15.14      -14.65      
C           124.92      -16.1       -13.75      
C           121.75      -14.4       -14.43      
O           121.18      -13.6       -15.07      
O           125.68      -16.83      -13.16      
C           119.79      -15.32      -13.14      
C           126.74      -14.65      -14.46      
H           126.80275   -13.94584   -13.63035   
H           127.03      -14.1       -15.31      
H           127.42      -15.53      -14.43      
H           119.61      -15.34      -12.1       
H           119.24013   -16.16178   -13.56089   
H           119.33      -14.41      -13.49      
N           121.24      -15.33      -13.42      
C           123.47      -15.8       -13.57      
C           122.29      -16.07      -12.9       
C           124.52      -11.4       -17.83      
C           125.41      -12.37      -18.22      
S           123.68      -11.9       -16.42      
H           125.86      -14.44      -17.37      
H           126.18      -12.23      -18.94      
C           125.31      -13.52      -17.31      
C           124.38      -13.5       -16.27      
C           124.99      -7.8        -19.06      
C           123.67      -7.91       -18.6       
S           125.9       -9.3        -18.96      
H           122.42      -9.51       -17.81      
H           123.07      -7.0        -18.45      
C           123.38      -9.26       -18.18      
C           124.43      -10.08      -18.35      
C           127.41      -5.17       -20.72      
C           126.34      -4.5        -20.11      
S           127.19      -6.81       -20.43      
H           124.34      -5.04       -19.2       
H           126.3       -3.42       -20.27      
C           125.28      -5.36       -19.57      
C           125.67      -6.61       -19.52      
C           130.42      -1.64       -22.1       
C           130.0       -2.89       -22.11      
N           129.5       -0.96       -21.31      
C           128.46      -1.85       -20.89      
C           130.26      -4.2        -22.71      
O           131.05      -4.57       -23.53      
O           127.63      -1.51       -20.1       
C           129.53      -6.53       -22.62      
C           129.29      0.43        -21.05      
H           129.97903   0.7883      -20.28517   
H           129.51      1.07        -21.89      
H           128.27      0.65        -20.8       
H           128.58      -7.04       -22.79      
H           130.16022   -7.23725    -22.08081   
H           129.86      -6.6        -23.66      
N           129.45      -5.17       -22.1       
C           128.85      -3.17       -21.34      
C           128.53      -4.54       -21.34      
C           133.52      -0.14       -23.95      
C           133.87      -1.38       -23.54      
S           132.07      0.42        -23.06      
H           132.83      -3.1        -22.63      
H           134.7       -1.9        -23.88      
C           132.75      -2.01       -22.82      
C           131.69      -1.2        -22.56      
C           136.07      1.9         -26.14      
C           135.39      2.74        -25.33      
S           135.41      0.32        -25.99      
H           133.89      2.67        -23.7       
H           135.69      3.77        -25.36      
C           134.42      2.15        -24.49      
C           134.37      0.83        -24.71      
C           139.2       3.35        -27.76      
C           139.01      2.1         -28.18      
S           137.9       3.76        -26.76      
H           137.74      0.31        -27.76      
H           139.68      1.6         -28.84      
C           137.96      1.37        -27.57      
C           137.23      2.18        -26.89      
C           143.41      4.32        -29.79      
C           142.41      4.81        -28.93      
N           142.95      3.28        -30.64      
C           141.63      2.83        -30.1       
C           141.98      5.78        -27.91      
O           142.59      6.74        -27.37      
O           141.03      1.86        -30.53      
C           139.87      6.27        -26.56      
C           143.26      3.08        -32.03      
H           142.79587   3.85355     -32.64181   
H           142.89      2.14        -32.39      
H           144.32      3.12        -32.24      
H           139.53      5.62        -25.8       
H           139.09052   6.91842     -26.96009   
H           140.66      6.84        -26.08      
N           140.65      5.4         -27.51      
C           141.34      3.83        -29.02      
C           140.38      4.19        -28.08      
C           147.02      5.68        -30.66      
C           146.44      6.47        -29.71      
S           146.05      4.3         -30.86      
H           144.7       6.48        -28.41      
H           146.95      7.31        -29.27      
C           145.18      5.99        -29.25      
C           144.75      4.88        -29.89      
C           150.44      5.02        -32.43      
C           150.6       6.19        -31.81      
S           148.78      4.49        -32.43      
H           149.22      7.42        -30.44      
H           151.55      6.79        -31.8       
C           149.43      6.58        -31.09      
C           148.33      5.79        -31.33      
C           152.63      2.6         -34.55      
C           153.51      3.44        -33.89      
S           151.01      2.96        -34.09      
H           153.25      5.03        -32.3       
H           154.62      3.28        -33.85      
C           152.78      4.38        -33.04      
C           151.44      4.3         -33.08      
H           49.36       24.07       5.06        
H           152.99      2.08        -35.49      
