392

C           58.19       27.34       7.24        
C           58.84       27.97       8.24        
N           57.16       26.7        7.87        
C           57.06       26.99       9.29        
C           60.0        28.83       8.55        
O           61.01       29.13       7.83        
O           55.99       26.84       9.95        
C           60.81       30.12       10.47       
C           56.27       25.58       7.38        
H           56.75881    24.67122    7.73112     
H           56.2        25.56       6.35        
H           55.21       25.56       7.68        
H           61.15       29.8        11.48       
H           60.61956    31.1921     10.42063    
H           61.68       29.84       9.94        
N           59.83       29.24       9.89        
C           58.18       27.85       9.5         
C           58.75       28.63       10.48       
C           58.63       27.36       3.34        
C           59.44       28.31       3.85        
S           57.77       26.54       4.65        
H           59.72       29.28       5.78        
H           60.15       28.9        3.33        
C           59.19       28.52       5.25        
C           58.38       27.61       5.86        
C           59.18       26.39       -0.42       
C           58.08       25.7        -0.06       
S           59.72       27.42       0.84        
H           57.11       25.25       1.96        
H           57.52       25.01       -0.71       
C           57.86       25.81       1.39        
C           58.65       26.7        2.02        
C           60.51       26.44       -4.17       
C           61.42       26.98       -3.27       
S           59.06       26.03       -3.28       
H           61.58       27.33       -1.19       
H           62.27       27.54       -3.56       
C           61.01       26.93       -1.95       
C           59.77       26.45       -1.73       
C           62.97       27.08       -8.26       
C           61.73       26.86       -7.64       
N           63.88       27.18       -7.21       
C           63.24       26.95       -5.97       
C           60.28       26.8        -7.91       
O           59.67       26.88       -8.94       
O           63.92       26.93       -4.95       
C           58.22       26.36       -6.56       
C           64.86       28.22       -7.19       
H           64.52106    29.12864    -6.69241    
H           65.04       28.57       -8.18       
H           65.82       27.81       -6.73       
H           57.86       26.83       -5.59       
H           57.95159    25.30756    -6.46818    
H           57.8        27.0        -7.3        
N           59.68       26.57       -6.61       
C           61.87       26.79       -6.24       
C           60.66       26.49       -5.65       
C           63.99       26.6        -12.07      
C           62.75       27.18       -12.01      
S           64.61       26.53       -10.43      
H           61.29       27.94       -10.5       
H           62.21       27.46       -12.89      
C           62.27       27.45       -10.7       
C           63.21       27.24       -9.7        
C           66.69       25.26       -14.56      
C           65.71       25.85       -15.33      
S           66.31       25.45       -12.88      
H           63.77       26.86       -14.97      
H           65.67       25.87       -16.43      
C           64.7        26.41       -14.53      
C           64.83       26.29       -13.17      
C           69.87       22.97       -14.88      
C           69.46       23.28       -16.09      
S           68.9        23.8        -13.69      
H           67.93       24.64       -17.12      
H           69.9        22.91       -17.03      
C           68.33       24.26       -16.11      
C           67.85       24.55       -14.92      
C           72.9        19.43       -15.8       
C           72.47       20.39       -15.0       
N           72.18       19.56       -17.04      
C           71.14       20.55       -16.87      
C           72.8        21.01       -13.72      
O           73.64       20.88       -12.86      
O           70.37       20.79       -17.76      
C           71.94       22.98       -12.37      
C           71.99       18.56       -18.09      
H           71.03717    18.03306    -18.03947   
H           72.76       17.77       -18.02      
H           72.01       19.05       -19.06      
H           71.0        23.45       -12.1       
H           72.59739    23.83967    -12.50003   
H           72.18       22.44       -11.46      
N           71.77       22.04       -13.56      
C           71.34       21.11       -15.5       
C           70.85       22.02       -14.62      
C           75.18       16.26       -14.98      
C           75.59       17.29       -14.24      
S           73.99       16.74       -16.17      
H           75.07       19.44       -13.9       
H           76.28       17.25       -13.39      
C           74.91       18.51       -14.53      
C           74.01       18.44       -15.6       
C           76.19       12.88       -13.39      
C           75.77       12.51       -14.7       
S           76.04       14.56       -13.09      
H           74.96       13.68       -16.46      
H           75.72       11.51       -15.08      
C           75.33       13.71       -15.41      
C           75.56       14.9        -14.73      
C           77.16       10.92       -10.21      
C           76.48       10.14       -11.07      
S           77.22       12.55       -10.88      
H           75.59       10.18       -13.01      
H           76.34       9.08        -10.93      
C           76.14       10.74       -12.27      
C           76.53       11.99       -12.31      
C           79.77       11.83       -6.32       
C           78.78       11.04       -6.94       
N           80.21       12.7        -7.31       
C           79.52       12.47       -8.55       
C           77.76       10.01       -6.67       
O           77.57       9.3         -5.66       
O           79.96       13.02       -9.52       
C           76.14       8.76        -7.96       
C           80.88       13.99       -7.24       
H           80.13913    14.73087    -6.93946    
H           81.26       14.22       -8.21       
H           81.63       13.98       -6.46       
H           76.44       8.03        -8.65       
H           75.14161    9.144       -8.16945    
H           76.15       8.24        -7.01       
N           77.09       9.84        -7.93       
C           78.51       11.47       -8.27       
C           77.53       10.7        -8.88       
C           81.2        12.19       -2.61       
C           80.08       11.46       -2.59       
S           81.57       12.55       -4.23       
H           78.44       10.94       -4.1        
H           79.72       11.07       -1.65       
C           79.39       11.41       -3.86       
C           80.13       11.86       -4.89       
C           83.65       11.94       0.39        
C           84.21       12.77       -0.54       
S           82.02       11.52       -0.15       
H           83.62       13.69       -2.58       
H           85.13       13.31       -0.43       
C           83.37       13.01       -1.72       
C           82.21       12.3        -1.68       
C           85.49       10.76       3.66        
C           84.28       10.11       3.59        
S           85.56       11.89       2.34        
H           82.5        10.0        2.27        
H           83.92       9.3         4.19        
C           83.47       10.49       2.5         
C           84.12       11.33       1.6         
C           88.16       8.25        6.87        
C           87.92       9.42        6.17        
N           86.98       7.54        6.77        
C           86.12       8.11        5.78        
C           88.52       10.7        5.79        
O           89.63       11.21       6.11        
O           85.18       7.47        5.35        
C           88.03       12.53       4.14        
C           86.36       6.85        7.89        
H           85.62895    7.46638     8.4132      
H           87.14       6.69        8.62        
H           86.12       5.81        7.71        
H           87.17       13.16       3.93        
H           88.7043     12.42464    3.2901      
H           88.43       13.1        5.03        
N           87.64       11.28       4.8         
C           86.7        9.4         5.38        
C           86.54       10.48       4.55        
C           91.34       7.29        8.95        
C           91.13       8.61        9.0         
S           90.1        6.56        8.01        
H           89.65       10.04       8.25        
H           91.72       9.27        9.54        
C           89.99       9.03        8.29        
C           89.24       8.02        7.77        
C           94.0        4.84        10.44       
C           94.39       6.14        10.55       
S           92.33       4.81        9.79        
H           93.62       8.13        10.46       
H           95.38       6.39        10.97       
C           93.42       7.08        10.2        
C           92.34       6.54        9.63        
C           95.45       1.23        10.76       
C           96.53       2.1         10.95       
S           93.99       2.09        10.52       
H           96.76       4.35        10.99       
H           97.54       1.68        11.14       
C           96.11       3.51        10.91       
C           94.76       3.61        10.7        
C           97.87       -2.62       9.37        
C           96.76       -2.11       10.05       
N           98.55       -1.52       8.82        
C           97.68       -0.34       8.92        
C           95.62       -2.5        10.94       
O           95.24       -3.56       11.4        
O           97.95       0.68        8.43        
C           94.43       -1.15       12.62       
C           99.98       -1.51       8.6         
H           100.46136   -0.79483    9.26703     
H           100.21      -1.17       7.6         
H           100.31      -2.53       8.7         
H           93.52       -0.53       12.69       
H           95.1167     -0.9447     13.44121    
H           94.01       -2.13       12.82       
N           95.08       -1.24       11.34       
C           96.67       -0.69       9.85        
C           95.63       -0.18       10.58       
C           99.21       -6.14       9.27        
C           98.65       -5.97       10.45       
S           99.08       -4.66       8.3         
H           97.65       -4.35       11.56       
H           98.48       -6.87       11.15       
C           98.22       -4.64       10.69       
C           98.34       -3.87       9.55        
C           100.94      -8.97       7.29        
C           99.91       -9.5        8.05        
S           100.99      -7.28       7.5         
H           98.53       -8.94       9.65        
H           99.6        -10.53      7.99        
C           99.3        -8.6        8.92        
C           99.77       -7.35       8.67        
C           103.5       -9.73       4.33        
C           102.47      -10.72      4.26        
S           103.24      -8.88       5.81        
H           100.57      -11.2       5.15        
H           102.41      -11.46      3.5         
C           101.51      -10.63      5.29        
C           101.75      -9.59       6.16        
C           106.44      -10.86      0.73        
C           106.01      -9.97       1.62        
N           105.76      -12.07      0.97        
C           104.78      -11.98      2.01        
C           106.19      -8.62       2.13        
O           106.81      -7.63       1.84        
O           104.04      -12.9       2.34        
C           104.81      -7.09       3.47        
C           106.0       -13.42      0.52        
H           106.571     -13.92676   1.29798     
H           106.42      -13.43      -0.46       
H           105.07      -13.96      0.5         
H           104.65      -7.01       4.56        
H           103.92239   -6.64969    3.01571     
H           105.56      -6.33       3.29        
N           105.2       -8.43       3.06        
C           105.03      -10.61      2.52        
C           104.63      -9.67       3.43        
C           109.28      -10.8       -1.93       
C           109.3       -9.61       -1.26       
S           108.02      -11.85      -1.37       
H           108.22      -8.73       0.45        
H           110.04      -8.85       -1.39       
C           108.35      -9.59       -0.23       
C           107.52      -10.7       -0.21       
C           111.68      -11.05      -5.15       
C           110.76      -12.08      -5.1        
S           111.24      -10.01      -3.79       
H           109.29      -13.03      -3.74       
H           110.77      -12.8       -5.9        
C           109.9       -12.15      -3.94       
C           110.03      -11.08      -3.13       
C           114.04      -9.75       -8.0        
C           114.18      -11.12      -7.79       
S           112.92      -9.13       -6.77       
H           113.14      -12.73      -6.59       
H           114.67      -11.88      -8.37       
C           113.34      -11.63      -6.72       
C           112.64      -10.71      -6.11       
C           116.73      -9.01       -11.92      
C           116.02      -8.48       -10.87      
N           116.73      -10.35      -11.74      
C           115.78      -10.71      -10.75      
C           115.68      -7.21       -10.26      
O           115.93      -6.06       -10.62      
O           115.47      -11.9       -10.68      
C           114.13      -6.46       -8.44       
C           117.71      -11.36      -12.19      
H           118.48181   -11.49705   -11.43262   
H           118.18      -11.07      -13.1       
H           117.22      -12.33      -12.42      
H           114.06      -6.74       -7.44       
H           113.22282   -6.17352    -8.97203    
H           114.85      -5.62       -8.47       
N           114.84      -7.56       -9.15       
C           115.45      -9.49       -10.07      
C           114.77      -8.94       -9.0        
C           118.59      -7.51       -14.85      
C           118.69      -6.66       -13.83      
S           117.75      -8.94       -14.4       
H           118.39      -6.56       -11.71      
H           119.15      -5.68       -13.91      
C           118.25      -7.2        -12.63      
C           117.64      -8.41       -12.77      
C           119.56      -6.65       -18.54      
C           119.33      -7.98       -18.41      
S           119.11      -5.79       -17.09      
H           119.05      -9.46       -16.75      
H           119.44      -8.72       -19.14      
C           119.05      -8.4        -17.09      
C           118.95      -7.34       -16.23      
C           121.25      -4.57       -21.38      
C           120.63      -5.67       -21.98      
S           120.86      -4.47       -19.73      
H           119.47      -7.44       -21.25      
H           120.79      -5.86       -23.03      
C           119.94      -6.5        -21.01      
C           119.97      -5.97       -19.74      
C           124.6       -3.55       -24.71      
C           123.63      -3.12       -23.82      
N           124.43      -4.93       -24.78      
C           123.43      -5.38       -23.85      
C           123.11      -1.9        -23.26      
O           123.43      -0.74       -23.42      
O           123.22      -6.54       -23.67      
C           121.54      -1.35       -21.37      
C           124.75      -5.76       -25.93      
H           123.98602   -5.61585    -26.69398   
H           125.73      -5.49       -26.17      
H           124.85      -6.78       -25.62      
H           121.53      -1.67       -20.33      
H           120.5937    -1.03694    -21.81113   
H           122.1       -0.46       -21.55      
N           122.2       -2.32       -22.23      
C           122.94      -4.22       -23.17      
C           122.1       -3.71       -22.19      
C           127.48      -1.61       -26.67      
C           126.4       -0.83       -26.5       
S           127.07      -3.18       -26.07      
H           124.4       -0.79       -25.57      
H           126.42      0.2         -26.87      
C           125.32      -1.37       -25.77      
C           125.46      -2.73       -25.52      
C           131.13      -1.82       -28.03      
C           130.53      -0.7        -28.58      
S           130.02      -2.61       -26.97      
H           128.48      0.31        -28.53      
H           130.99      -0.03       -29.24      
C           129.13      -0.52       -28.16      
C           128.72      -1.5        -27.29      
C           134.77      -2.79       -28.57      
C           134.49      -3.1        -27.25      
S           133.43      -2.08       -29.4       
H           132.7       -2.8        -25.98      
H           135.15      -3.46       -26.46      
C           133.17      -2.73       -26.96      
C           132.5       -2.25       -28.0       
C           139.4       -3.79       -28.59      
C           138.27      -3.68       -29.23      
N           139.13      -3.34       -27.31      
C           137.76      -3.0        -27.03      
C           137.64      -4.01       -30.54      
O           138.11      -4.6        -31.53      
O           137.41      -2.54       -25.99      
C           135.28      -4.15       -31.3       
C           140.06      -2.79       -26.26      
H           140.34266   -1.74633    -26.39771   
H           141.0       -3.25       -26.23      
H           139.68      -2.99       -25.27      
H           134.8       -3.25       -31.7       
H           134.73353   -4.99073    -30.87263   
H           135.89      -4.63       -32.11      
N           136.26      -3.74       -30.32      
C           137.22      -3.23       -28.4       
C           136.05      -3.19       -29.07      
C           143.1       -5.19       -29.48      
C           142.45      -4.82       -30.63      
S           141.98      -4.91       -28.11      
H           140.48      -4.03       -31.18      
H           142.91      -4.91       -31.61      
C           141.09      -4.34       -30.4       
C           140.69      -4.28       -29.1       
C           146.5       -7.19       -29.32      
C           145.92      -7.23       -28.14      
S           145.49      -6.34       -30.41      
H           144.09      -6.56       -27.14      
H           146.36      -7.67       -27.27      
C           144.73      -6.52       -28.02      
C           144.31      -5.86       -29.19      
C           149.91      -8.83       -30.27      
C           149.56      -8.03       -31.26      
S           148.76      -8.78       -28.95      
H           148.13      -6.37       -31.59      
H           150.17      -7.99       -32.18      
C           148.48      -7.16       -30.96      
C           147.87      -7.51       -29.75      
H           58.37       28.68       11.5        
H           150.96      -9.09       -30.1       
