392

C           40.98       17.68       26.68       
C           40.1        17.62       25.67       
N           40.43       18.36       27.8        
C           39.01       18.66       27.47       
C           39.94       17.16       24.36       
O           40.68       16.49       23.6        
O           38.31       19.24       28.23       
C           37.87       16.62       23.05       
C           41.1        19.43       28.6        
H           41.02215    20.42784    28.16831    
H           42.11       19.19       28.99       
H           40.52       19.44       29.47       
H           37.85       17.18       22.11       
H           36.90498    16.25812    23.40479    
H           38.54       15.82       22.79       
N           38.51       17.46       24.09       
C           38.83       18.18       26.12       
C           37.9        18.18       25.12       
C           44.59       16.37       27.39       
C           44.39       16.4        26.02       
S           43.24       17.0        28.2        
H           42.77       17.02       24.61       
H           45.11       16.28       25.27       
C           43.09       16.91       25.64       
C           42.34       17.21       26.72       
C           48.26       16.37       28.81       
C           47.43       15.87       29.79       
S           47.3        16.71       27.39       
H           45.33       15.21       29.99       
H           47.87       15.63       30.83       
C           46.05       15.72       29.4        
C           45.79       16.15       28.07       
C           52.01       17.03       29.58       
C           51.68       17.76       28.44       
S           50.69       16.04       30.08       
H           49.93       17.98       27.19       
H           52.38       18.41       28.01       
C           50.36       17.47       28.03       
C           49.64       16.67       28.87       
C           56.82       16.69       29.6        
C           55.62       16.61       30.22       
N           56.51       17.21       28.36       
C           55.12       17.48       28.22       
C           55.12       16.23       31.49       
O           55.57       15.87       32.5        
O           54.65       17.68       27.13       
C           52.85       16.5        32.54       
C           57.36       17.4        27.16       
H           57.4352     18.43228    26.81818    
H           57.0        16.91       26.31       
H           58.38       17.1        27.39       
H           51.87       16.1        32.44       
H           52.72297    17.47386    33.01282    
H           53.44       15.91       33.26       
N           53.69       16.47       31.32       
C           54.5        17.08       29.43       
C           53.32       16.9        30.01       
C           60.53       16.3        31.01       
C           59.65       16.56       32.0        
S           59.66       16.19       29.51       
H           57.6        17.18       32.26       
H           59.98       16.58       33.0        
C           58.34       16.81       31.59       
C           58.13       16.69       30.26       
C           64.35       15.65       31.63       
C           64.09       15.4        30.33       
S           62.92       16.27       32.42       
H           62.31       15.14       29.06       
H           64.9        15.06       29.64       
C           62.72       15.55       29.99       
C           61.95       16.13       30.95       
C           67.5        14.42       33.55       
C           66.91       15.4        34.24       
S           66.68       14.2        32.01       
H           65.18       16.78       33.97       
H           67.3        15.88       35.16       
C           65.8        15.99       33.6        
C           65.49       15.38       32.46       
C           71.45       13.35       36.13       
C           70.56       13.06       35.12       
N           70.92       14.43       36.79       
C           69.86       15.03       36.04       
C           70.3        12.05       34.1        
O           70.87       11.01       33.87       
O           69.34       16.15       36.33       
C           68.46       11.51       32.54       
C           70.59       14.41       38.21       
H           69.92335    13.57131    38.41071    
H           70.14       15.42       38.53       
H           71.53       14.25       38.72       
H           68.28       11.84       31.56       
H           67.53446    11.10638    32.95058    
H           69.12       10.74       32.39       
N           69.09       12.5        33.39       
C           69.52       14.06       35.02       
C           68.72       13.73       33.95       
C           74.88       11.72       37.44       
C           74.54       11.21       36.2        
S           73.61       12.84       37.93       
H           72.81       11.28       34.85       
H           75.13       10.53       35.66       
C           73.24       11.6        35.7        
C           72.67       12.61       36.46       
C           78.0        10.55       39.32       
C           77.25       11.26       40.21       
S           77.35       10.64       37.68       
H           75.25       12.12       40.19       
H           77.44       11.36       41.26       
C           76.08       11.76       39.62       
C           75.98       11.47       38.29       
C           81.11       8.22        39.32       
C           80.83       8.5         40.61       
S           80.02       9.17        38.28       
H           79.39       9.7         41.72       
H           81.24       8.04        41.46       
C           79.68       9.39        40.77       
C           79.16       9.8         39.59       
C           85.22       5.86        39.98       
C           84.18       6.19        39.11       
N           85.22       6.84        40.92       
C           84.02       7.67        40.87       
C           83.52       5.86        37.8        
O           83.85       5.07        36.97       
O           83.71       8.45        41.7        
C           81.11       6.06        37.07       
C           86.36       7.27        41.79       
H           86.49501    8.35011     41.84685    
H           87.18       6.73        41.31       
H           86.28       6.86        42.76       
H           80.22       6.68        37.22       
H           80.85965    5.05145     37.39903    
H           81.41       6.18        36.0        
N           82.23       6.59        37.88       
C           83.35       7.22        39.68       
C           82.2        7.38        38.96       
C           87.8        2.97        40.23       
C           87.45       3.16        38.92       
S           86.83       3.97        41.24       
H           86.07       4.48        37.77       
H           87.87       2.61        38.12       
C           86.45       4.12        38.77       
C           86.21       4.83        39.89       
C           90.01       0.74        42.5        
C           90.34       0.37        41.22       
S           88.65       1.82        42.52       
H           89.71       1.21        39.18       
H           91.17       -0.3        40.98       
C           89.58       1.13        40.27       
C           88.65       1.98        40.82       
C           91.76       -0.97       45.55       
C           90.49       -0.55       45.97       
S           91.93       -0.73       43.84       
H           88.73       0.39        45.02       
H           90.07       -0.7        46.99       
C           89.82       0.09        44.9        
C           90.45       0.1         43.72       
C           94.01       -2.74       49.57       
C           94.0        -2.54       48.21       
N           92.84       -2.23       50.08       
C           91.98       -1.8        49.06       
C           94.78       -2.73       47.02       
O           95.87       -3.22       46.91       
O           90.85       -1.35       49.26       
C           94.58       -2.32       44.59       
C           92.36       -2.04       51.45       
H           92.08944    -1.00047    51.63512    
H           93.11       -2.2        52.2        
H           91.59       -2.75       51.61       
H           94.25       -1.44       43.95       
H           94.43929    -3.31202    44.16083    
H           95.64       -2.19       44.73       
N           93.99       -2.21       45.91       
C           92.77       -1.88       47.82       
C           92.77       -1.62       46.43       
C           96.49       -4.75       51.98       
C           97.17       -4.2        50.91       
S           94.86       -4.16       51.91       
H           96.77       -2.93       49.17       
H           98.19       -4.53       50.56       
C           96.4        -3.33       50.08       
C           95.07       -3.23       50.47       
C           97.4        -8.25       53.62       
C           97.04       -7.34       54.63       
S           97.46       -7.36       52.12       
H           96.1        -5.37       54.7        
H           97.02       -7.58       55.66       
C           96.6        -6.1        54.1        
C           96.89       -5.9        52.78       
C           98.49       -11.86      52.85       
C           98.78       -11.65      54.16       
S           97.97       -10.35      52.16       
H           98.36       -10.05      55.76       
H           99.18       -12.42      54.78       
C           98.35       -10.35      54.72       
C           97.8        -9.6        53.73       
C           101.81      -15.01      51.59       
C           100.62      -14.41      51.29       
N           102.25      -14.5       52.85       
C           101.27      -13.63      53.43       
C           99.53       -14.27      50.3        
O           99.28       -14.85      49.19       
O           101.55      -13.07      54.46       
C           97.34       -13.16      50.26       
C           103.49      -14.7       53.57       
H           104.11736   -13.8257    53.39647    
H           103.98      -15.54      53.22       
H           103.34      -14.9       54.59       
H           96.9        -12.22      50.45       
H           96.58219    -13.85346   50.6246     
H           97.49       -13.18      49.18       
N           98.63       -13.37      50.87       
C           100.21      -13.59      52.42       
C           99.03       -12.94      52.1        
C           104.3       -17.13      49.16       
C           103.28      -16.5       48.5        
S           104.04      -16.67      50.84       
H           101.62      -15.13      48.84       
H           103.23      -16.49      47.43       
C           102.41      -15.73      49.26       
C           102.63      -15.74      50.62       
C           107.43      -18.24      47.31       
C           107.55      -18.71      48.6        
S           106.0       -17.34      47.13       
H           106.39      -18.68      50.42       
H           108.43      -19.24      48.97       
C           106.49      -18.41      49.41       
C           105.53      -17.67      48.78       
C           110.35      -18.33      44.7        
C           109.19      -18.29      44.03       
S           109.97      -18.35      46.41       
H           107.03      -18.3       44.6        
H           109.14      -18.2       42.94       
C           108.02      -18.38      44.87       
C           108.3       -18.4       46.21       
C           113.74      -16.81      41.56       
C           113.45      -17.52      42.69       
N           112.59      -16.17      41.13       
C           111.44      -16.51      41.98       
C           113.96      -18.38      43.74       
O           115.09      -18.71      43.89       
O           110.33      -16.07      41.83       
C           113.25      -19.56      45.73       
C           112.48      -14.87      40.46       
H           112.37674   -14.0292    41.14592    
H           111.53      -14.96      39.95       
H           113.36      -14.66      39.79       
H           112.43      -20.28      45.77       
H           113.39215   -19.0767    46.6966     
H           114.12      -20.09      45.26       
N           112.9       -18.62      44.66       
C           112.07      -17.37      43.01       
C           111.73      -18.05      44.14       
C           116.77      -17.13      39.27       
C           116.94      -18.07      40.2        
S           115.41      -16.13      39.48       
H           115.64      -18.76      41.79       
H           117.79      -18.74      40.24       
C           115.79      -18.07      40.99       
C           114.87      -17.08      40.77       
C           118.74      -15.59      36.22       
C           119.51      -16.65      36.72       
S           117.2       -15.6       37.05       
H           119.45      -17.92      38.41       
H           120.45      -17.05      36.3        
C           118.94      -17.27      37.88       
C           117.71      -16.78      38.22       
C           118.65      -12.7       33.7        
C           119.89      -13.29      33.58       
S           117.69      -13.49      34.87       
H           120.99      -14.96      34.59       
H           120.68      -12.88      32.88       
C           120.05      -14.43      34.44       
C           118.93      -14.68      35.15       
C           119.19      -8.48       31.46       
C           118.36      -9.5        31.88       
N           120.54      -8.87       31.73       
C           120.56      -10.04      32.52       
C           116.97      -9.99       31.88       
O           116.06      -9.6        31.18       
O           121.57      -10.66      32.87       
C           115.79      -11.98      32.74       
C           121.72      -7.99       31.7        
H           121.94572   -7.67691    32.71937    
H           121.55      -7.06       31.2        
H           122.57      -8.51       31.17       
H           115.49      -12.23      33.77       
H           115.83944   -12.82054   32.04779    
H           115.0       -11.33      32.35       
N           116.98      -11.15      32.71       
C           119.12      -10.44      32.56       
C           118.3       -11.47      33.06       
C           118.34      -5.38       29.33       
C           117.29      -5.59       30.19       
S           119.65      -6.46       29.63       
H           116.83      -7.12       31.82       
H           116.33      -5.05       30.28       
C           117.53      -6.7        31.1        
C           118.78      -7.27       30.91       
C           119.17      -2.91       26.44       
C           117.78      -2.99       26.57       
S           119.88      -4.11       27.52       
H           116.37      -4.06       27.98       
H           117.05      -2.35       26.07       
C           117.35      -3.85       27.61       
C           118.36      -4.42       28.27       
C           120.81      -1.91       23.02       
C           121.64      -1.55       24.03       
S           119.34      -2.46       23.81       
H           121.68      -1.62       26.34       
H           122.62      -1.19       23.74       
C           121.21      -1.87       25.38       
C           119.92      -2.32       25.4        
C           123.25      -0.75       18.95       
C           122.18      -1.33       19.56       
N           123.91      -0.02       19.94       
C           123.18      -0.1        21.26       
C           120.99      -2.05       19.21       
O           120.7       -2.58       18.19       
O           123.42      0.56        22.32       
C           119.49      -3.45       20.54       
C           125.16      0.67        19.96       
H           125.88976   0.21304     20.62838    
H           125.54      0.85        19.0        
H           125.05      1.69        20.44       
H           118.82      -3.41       21.41       
H           119.92206   -4.44162    20.40542    
H           118.94      -3.14       19.6        
N           120.46      -2.4        20.53       
C           122.15      -1.05       20.98       
C           121.12      -1.74       21.56       
C           124.7       -1.2        15.32       
C           123.38      -1.17       15.2        
S           125.19      -1.18       16.98       
H           121.6       -0.91       16.56       
H           122.82      -1.24       14.29       
C           122.73      -1.02       16.43       
C           123.58      -0.81       17.53       
C           127.97      -1.65       13.13       
C           126.81      -1.71       12.3        
S           127.43      -1.29       14.79       
H           124.69      -1.53       12.35       
H           126.86      -1.81       11.26       
C           125.62      -1.58       12.96       
C           125.76      -1.44       14.32       
C           131.63      -2.1        11.66       
C           131.61      -1.52       12.88       
S           129.93      -2.26       11.2        
H           130.22      -1.0        14.51       
H           132.58      -1.21       13.22       
C           130.38      -1.34       13.51       
C           129.38      -1.73       12.75       
C           135.89      -0.91       9.71        
C           134.79      -1.71       9.7         
N           135.84      -0.22       10.9        
C           134.65      -0.44       11.65       
C           134.02      -2.74       8.88        
O           134.26      -3.2        7.79        
O           134.39      0.07        12.74       
C           132.1       -4.22       9.33        
C           137.04      0.12        11.67       
H           137.57969   -0.78668    11.94344    
H           136.65      0.61        12.58       
H           137.67      0.78        11.1        
H           131.08      -4.08       9.51        
H           132.4878    -5.12252    9.80241     
H           132.22      -4.33       8.24        
N           132.89      -3.01       9.66        
C           133.92      -1.39       10.8        
C           132.72      -2.14       10.72       
C           138.64      -0.31       6.99        
C           138.14      -1.54       6.84        
S           137.82      0.47        8.32        
H           136.72      -2.9        7.82        
H           138.36      -2.21       6.08        
C           137.19      -1.89       7.82        
C           136.87      -0.9        8.72        
C           141.3       1.63        4.93        
C           140.56      0.91        4.05        
S           140.94      1.09        6.54        
H           138.84      -0.39       4.11        
H           140.6       1.12        2.99        
C           139.55      0.09        4.66        
C           139.51      0.22        6.01        
C           143.61      4.56        3.61        
C           143.94      4.23        4.93        
S           142.3       3.57        3.22        
H           143.19      2.92        6.47        
H           144.74      4.72        5.56        
C           143.18      3.2         5.47        
C           142.39      2.58        4.63        
H           37.05       18.79       25.15       
H           144.04      5.35        2.96        
