392

C           65.42       6.14        38.16       
C           65.88       7.44        37.99       
N           65.15       5.59        36.92       
C           65.32       6.62        35.92       
C           66.22       8.66        38.71       
O           66.31       8.86        39.9        
O           65.04       6.51        34.72       
C           66.55       11.07       37.96       
C           64.87       4.27        36.46       
H           65.64194    3.9542      35.75823    
H           63.88       4.12        36.22       
H           65.06       3.49        37.27       
H           66.22       11.48       37.04       
H           67.52261    11.41077    38.31497    
H           65.63       11.19       38.62       
N           66.56       9.6         37.71       
C           65.83       7.78        36.64       
C           66.37       9.01        36.49       
C           64.78       4.1         41.46       
C           65.77       5.03        41.74       
S           64.32       4.11        39.76       
H           66.81       6.68        40.55       
H           66.2        5.19        42.75       
C           66.08       5.84        40.54       
C           65.44       5.42        39.41       
C           63.71       1.1         43.71       
C           62.67       1.52        43.05       
S           65.15       1.97        43.24       
H           62.22       3.23        41.65       
H           61.69       0.99        43.2        
C           62.9        2.64        42.18       
C           64.19       3.1         42.36       
C           63.33       -1.94       46.12       
C           64.64       -1.88       45.76       
S           62.43       -0.77       45.15       
H           65.87       -0.83       44.37       
H           65.35       -2.51       46.24       
C           64.91       -0.88       44.82       
C           63.87       -0.12       44.43       
C           63.41       -6.23       48.29       
C           62.79       -5.04       48.08       
N           64.64       -6.11       47.6        
C           64.64       -4.98       46.73       
C           61.54       -4.31       48.43       
O           60.61       -4.59       49.23       
O           65.6        -4.78       46.01       
C           60.62       -2.13       47.98       
C           65.95       -6.4        48.27       
H           66.27438    -5.52558    48.83414    
H           66.76       -6.65       47.57       
H           65.82       -7.17       48.98       
H           60.39       -1.46       47.18       
H           60.8409     -1.55281    48.87786    
H           59.69       -2.69       48.19       
N           61.69       -3.09       47.7        
C           63.51       -4.23       47.13       
C           62.84       -3.07       46.91       
C           62.44       -9.81       49.85       
C           61.38       -8.99       49.69       
S           63.85       -8.97       49.23       
H           60.91       -7.02       48.84       
H           60.31       -9.36       49.9        
C           61.64       -7.77       49.13       
C           62.98       -7.52       48.87       
C           63.56       -13.45      50.94       
C           62.28       -13.27      51.35       
S           64.17       -12.0       50.19       
H           60.72       -11.72      51.29       
H           61.68       -14.05      51.87       
C           61.74       -12.01      50.99       
C           62.61       -11.2       50.26       
C           66.47       -16.01      51.32       
C           65.75       -16.06      52.49       
S           65.98       -14.65      50.41       
H           63.86       -15.3       53.29       
H           65.94       -16.78      53.31       
C           64.56       -15.27      52.49       
C           64.48       -14.53      51.32       
C           69.91       -19.02      52.28       
C           69.28       -18.34      51.32       
N           69.34       -18.92      53.44       
C           68.39       -17.85      53.42       
C           69.27       -18.0       49.93       
O           69.88       -18.44      48.97       
O           67.86       -17.53      54.46       
C           67.58       -16.72      48.53       
C           68.92       -20.07      54.21       
H           68.22951    -20.73141   53.68668    
H           68.49       -19.76      55.19       
H           69.82       -20.58      54.46       
H           67.61       -15.68      48.44       
H           66.55207    -17.06033   48.40498    
H           68.3        -17.08      47.74       
N           68.15       -17.13      49.8        
C           68.3        -17.5       52.0        
C           67.68       -16.72      51.06       
C           73.5        -20.62      52.43       
C           72.93       -20.69      51.16       
S           72.35       -19.84      53.4        
H           70.92       -20.19      50.18       
H           73.41       -21.19      50.42       
C           71.58       -20.24      51.09       
C           71.13       -19.78      52.21       
C           76.7        -22.7       53.36       
C           76.31       -21.9       54.44       
S           75.69       -22.48      51.99       
H           74.99       -20.33      54.8        
H           76.78       -21.99      55.42       
C           75.3        -21.05      54.11       
C           74.77       -21.21      52.85       
C           78.84       -25.98      53.68       
C           79.35       -25.11      52.74       
S           77.42       -25.15      54.27       
H           79.04       -23.21      51.65       
H           80.23       -25.32      52.13       
C           78.67       -23.88      52.42       
C           77.65       -23.78      53.32       
C           81.68       -29.88      53.26       
C           80.73       -29.21      53.95       
N           81.95       -29.15      52.12       
C           81.3        -27.89      52.2        
C           79.86       -29.28      55.12       
O           79.68       -30.1       55.98       
O           81.37       -27.05      51.28       
C           78.48       -27.6       56.33       
C           82.88       -29.41      51.05       
H           82.3372     -29.51438   50.11054    
H           83.48       -30.3       51.18       
H           83.55       -28.6       50.9        
H           78.04       -26.61      56.19       
H           79.10842    -27.66831   57.21799    
H           77.65       -28.33      56.3        
N           79.24       -28.0       55.15       
C           80.46       -27.94      53.36       
C           79.41       -27.25      54.02       
C           82.82       -33.7       53.55       
C           82.37       -33.24      54.78       
S           82.66       -32.4       52.45       
H           81.92       -31.25      55.73       
H           82.45       -33.76      55.74       
C           82.02       -31.85      54.78       
C           82.21       -31.19      53.61       
C           83.56       -37.16      51.84       
C           83.78       -37.28      53.16       
S           83.02       -35.52      51.51       
H           83.98       -36.02      54.98       
H           83.89       -38.25      53.61       
C           83.71       -36.04      53.91       
C           83.24       -35.03      53.17       
C           82.94       -40.35      49.38       
C           82.86       -39.16      48.71       
S           83.29       -39.91      51.08       
H           82.85       -37.03      49.02       
H           82.56       -39.04      47.67       
C           83.17       -38.01      49.51       
C           83.42       -38.17      50.81       
C           80.39       -43.34      46.61       
C           81.34       -43.17      47.61       
N           79.71       -42.1       46.48       
C           80.44       -41.03      47.15       
C           82.34       -43.84      48.43       
O           82.8        -44.98      48.43       
O           79.95       -39.93      47.22       
C           84.24       -43.03      49.89       
C           78.34       -41.98      46.04       
H           78.28964    -41.13825   45.34933    
H           77.71       -41.88      46.88       
H           77.9        -42.84      45.7        
H           84.34       -42.49      50.9        
H           85.08396    -42.79088   49.24296    
H           84.23       -44.01      50.31       
N           82.93       -42.8       49.2        
C           81.45       -41.77      47.93       
C           82.43       -41.58      48.91       
C           79.14       -46.57      44.72       
C           79.79       -46.89      45.89       
S           79.29       -44.88      44.51       
H           80.84       -45.92      47.52       
H           80.05       -47.94      46.15       
C           80.34       -45.82      46.57       
C           80.03       -44.61      46.05       
C           78.85       -48.94      41.69       
C           77.82       -48.08      41.63       
S           79.75       -48.77      43.15       
H           77.06       -46.48      42.87       
H           77.14       -47.96      40.78       
C           77.83       -47.25      42.78       
C           78.73       -47.5       43.68       
C           79.61       -51.18      38.52       
C           80.54       -51.48      39.49       
S           78.42       -50.04      39.13       
H           80.94       -50.85      41.52       
H           81.34       -52.2       39.33       
C           80.3        -50.75      40.69       
C           79.2        -49.94      40.65       
C           81.67       -52.96      34.54       
C           80.47       -52.57      35.22       
N           82.72       -52.8       35.42       
C           82.35       -52.32      36.74       
C           79.05       -52.33      35.01       
O           78.27       -52.49      34.06       
O           83.13       -51.79      37.5        
C           77.22       -51.48      36.5        
C           84.05       -53.1       35.18       
H           84.3986     -53.76985   35.96605    
H           84.69       -52.24      34.87       
H           84.21       -53.76      34.3        
H           77.11       -50.47      36.96       
H           76.66032    -52.31952   36.91239    
H           76.83       -51.37      35.53       
N           78.64       -51.81      36.34       
C           80.86       -52.21      36.53       
C           79.75       -51.64      37.14       
C           82.05       -53.84      30.77       
C           80.77       -54.23      31.19       
S           82.86       -53.02      32.07       
H           79.71       -54.32      33.07       
H           80.04       -54.64      30.52       
C           80.62       -54.01      32.57       
C           81.69       -53.52      33.23       
C           83.92       -53.84      27.44       
C           82.65       -53.4       27.28       
S           84.21       -54.15      29.16       
H           80.88       -53.0       28.47       
H           82.33       -52.96      26.36       
C           81.9        -53.33      28.44       
C           82.58       -53.79      29.52       
C           86.43       -53.24      24.49       
C           87.09       -53.89      25.53       
S           84.75       -53.13      24.96       
H           86.61       -54.51      27.61       
H           88.14       -54.09      25.59       
C           86.25       -54.16      26.66       
C           85.01       -53.84      26.49       
C           90.21       -51.44      21.96       
C           88.8        -51.66      22.07       
N           90.72       -51.86      23.15       
C           89.78       -52.65      23.9        
C           87.53       -51.43      21.41       
O           87.33       -50.93      20.3        
O           90.21       -53.35      24.79       
C           85.19       -52.39      21.53       
C           91.78       -51.15      23.95       
H           91.32389    -50.59253   24.7681     
H           92.21       -50.35      23.36       
H           92.54       -51.77      24.29       
H           84.38       -52.12      22.24       
H           85.0516     -53.4389    21.26778    
H           85.11       -51.7       20.65       
N           86.55       -52.2       22.16       
C           88.51       -52.43      23.25       
C           87.14       -52.62      23.33       
C           92.39       -49.82      19.15       
C           91.15       -49.32      19.13       
S           92.58       -50.89      20.5        
H           89.26       -49.67      20.22       
H           90.82       -48.67      18.29       
C           90.28       -49.81      20.13       
C           90.92       -50.64      21.02       
C           94.89       -49.1       16.15       
C           95.55       -49.09      17.3        
S           93.19       -49.33      16.54       
H           95.09       -49.41      19.58       
H           96.61       -49.0       17.32       
C           94.75       -49.26      18.58       
C           93.41       -49.49      18.27       
C           95.38       -48.24      12.31       
C           96.53       -48.82      12.75       
S           94.24       -48.17      13.61       
H           97.23       -49.7       14.63       
H           97.44       -49.03      12.17       
C           96.44       -49.16      14.16       
C           95.3        -48.88      14.77       
C           96.87       -45.26      8.79        
C           95.85       -45.87      9.49        
N           98.03       -45.68      9.34        
C           97.76       -46.63      10.46       
C           94.4        -45.88      9.63        
O           93.47       -45.31      9.08        
O           98.61       -47.14      11.21       
C           92.71       -47.28      10.67       
C           99.34       -45.47      8.7         
H           100.1245    -46.1746    8.97603     
H           99.69       -44.43      8.77        
H           99.22       -45.59      7.67        
H           92.5        -47.49      11.68       
H           92.51732    -48.23009   10.1717     
H           92.01       -46.44      10.44       
N           94.08       -46.9       10.6        
C           96.3        -46.83      10.44       
C           95.27       -47.37      11.18       
C           97.0        -42.94      5.5         
C           95.72       -43.47      5.7         
S           97.96       -43.45      6.89        
H           94.72       -44.99      7.13        
H           94.91       -43.24      5.09        
C           95.59       -44.34      6.9         
C           96.79       -44.45      7.59        
C           98.2        -40.9       2.35        
C           99.31       -41.24      3.03        
S           96.7        -41.42      3.1         
H           99.78       -42.35      4.87        
H           100.31      -41.07      2.65        
C           99.03       -42.06      4.19        
C           97.63       -42.14      4.37        
C           98.11       -38.19      -0.48       
C           97.23       -39.23      -0.84       
S           98.88       -38.51      1.05        
H           96.36       -40.92      0.2         
H           96.54       -39.13      -1.73       
C           97.18       -40.18      0.22        
C           98.09       -40.06      1.17        
C           98.29       -35.67      -4.56       
C           98.52       -35.72      -3.16       
N           97.98       -37.0       -4.88       
C           97.69       -37.79      -3.72       
C           98.94       -34.92      -2.02       
O           99.27       -33.78      -1.96       
O           97.31       -38.91      -3.87       
C           98.84       -35.04      0.47        
C           97.55       -37.49      -6.17       
H           98.37786    -38.06313   -6.58747    
H           96.69       -38.18      -6.13       
H           97.15       -36.68      -6.77       
H           99.08       -35.7       1.3         
H           97.92818    -34.542     0.79966     
H           99.63       -34.31      0.34        
N           98.76       -35.75      -0.83       
C           98.27       -37.02      -2.6        
C           98.45       -37.08      -1.26       
C           98.53       -32.57      -6.89       
C           99.59       -32.46      -5.98       
S           97.7        -34.1       -6.69       
H           100.35      -33.74      -4.29       
H           100.38      -31.73      -5.95       
C           99.68       -33.63      -5.09       
C           98.72       -34.6       -5.39       
C           96.85       -30.47      -9.71       
C           97.58       -29.59      -9.0        
S           97.03       -32.05      -9.02       
H           98.76       -29.53      -7.14       
H           97.71       -28.52      -9.21       
C           98.22       -30.17      -7.81       
C           98.11       -31.51      -7.74       
C           94.97       -30.34      -13.11      
C           94.82       -29.14      -12.52      
S           95.96       -31.37      -12.09      
H           95.45       -28.14      -10.71      
H           94.36       -28.29      -13.0       
C           95.47       -29.03      -11.27      
C           96.01       -30.19      -10.85      
C           91.94       -30.05      -16.74      
C           93.0        -30.71      -16.15      
N           91.56       -28.95      -16.02      
C           92.53       -28.82      -14.86      
C           93.79       -31.89      -16.24      
O           93.88       -32.8       -17.04      
O           92.49       -27.87      -14.14      
C           95.42       -33.14      -14.69      
C           90.27       -28.27      -15.97      
H           89.78176    -28.37202   -15.00082   
H           89.62       -28.54      -16.86      
H           90.41       -27.2       -16.09      
H           95.51       -33.25      -13.67      
H           96.36965    -33.1189    -15.22462   
H           94.88       -33.93      -15.06      
N           94.58       -31.96      -15.02      
C           93.35       -30.05      -14.91      
C           94.34       -30.78      -14.3       
C           90.72       -30.52      -20.6       
C           91.93       -31.11      -20.38      
S           90.18       -29.78      -19.11      
H           93.37       -31.49      -18.89      
H           92.42       -31.58      -21.17      
C           92.4        -30.96      -19.07      
C           91.61       -30.24      -18.17      
C           88.92       -30.1       -24.01      
C           88.02       -29.87      -23.01      
S           90.45       -30.66      -23.27      
H           87.99       -29.8       -20.85      
H           87.06       -29.5       -23.25      
C           88.57       -30.03      -21.72      
C           89.84       -30.43      -21.74      
C           89.43       -29.95      -27.87      
C           88.11       -29.85      -27.69      
S           90.27       -29.97      -26.37      
H           86.73       -30.0       -25.96      
H           87.4        -29.9       -28.44      
C           87.74       -29.94      -26.28      
C           88.85       -29.92      -25.45      
H           66.49       9.41        35.46       
H           89.88       -29.8       -28.85      
