392

C           72.97       4.04        15.71       
C           72.81       3.05        14.86       
N           74.23       3.73        16.31       
C           74.73       2.41        15.93       
C           71.88       2.58        13.8        
O           70.79       2.93        13.36       
O           75.58       1.73        16.53       
C           71.97       0.62        12.11       
C           75.26       4.56        16.9        
H           76.05389    4.58714     16.15361    
H           75.57       4.33        17.92       
H           74.87       5.61        16.98       
H           72.11       -0.45       12.17       
H           72.4618     1.06332     11.24415    
H           70.91       0.75        12.09       
N           72.42       1.3         13.36       
C           73.77       2.01        14.97       
C           73.46       0.96        14.15       
C           71.56       7.62        15.97       
C           71.49       7.33        14.72       
S           72.29       6.43        16.99       
H           71.99       5.53        13.55       
H           70.97       7.91        13.94       
C           71.99       6.01        14.51       
C           72.49       5.43        15.65       
C           70.3        11.29       16.77       
C           70.63       10.68       17.95       
S           70.35       10.05       15.49       
H           71.33       8.65        18.65       
H           70.55       11.19       18.94       
C           71.05       9.33        17.81       
C           71.07       8.88        16.53       
C           68.96       14.92       15.79       
C           69.61       14.96       16.99       
S           68.99       13.25       15.24       
H           70.76       13.56       18.29       
H           69.73       15.81       17.55       
C           70.23       13.71       17.37       
C           69.91       12.67       16.61       
C           66.97       19.32       15.3        
C           67.09       18.04       14.85       
N           67.6        19.36       16.57       
C           68.13       18.09       16.92       
C           66.81       17.17       13.69       
O           66.24       17.36       12.64       
O           68.55       17.8        18.09       
C           67.76       15.09       12.8        
C           67.8        20.41       17.59       
H           68.87035    20.56883    17.7212     
H           67.37       20.21       18.56       
H           67.26       21.34       17.31       
H           67.68       14.02       13.08       
H           68.70089    15.24682    12.27253    
H           66.99       15.31       12.15       
N           67.52       16.01       13.94       
C           67.92       17.26       15.76       
C           68.17       16.02       15.25       
C           66.12       22.72       13.45       
C           65.36       21.7        12.94       
S           67.17       22.13       14.66       
H           64.94       19.56       13.34       
H           64.71       21.85       12.08       
C           65.52       20.47       13.58       
C           66.43       20.51       14.64       
C           66.12       26.38       11.82       
C           66.71       26.45       13.07       
S           65.83       24.68       11.51       
H           67.04       24.99       14.79       
H           67.11       27.42       13.44       
C           66.67       25.17       13.79       
C           66.16       24.12       13.12       
C           66.19       28.34       8.51        
C           66.89       29.16       9.39        
S           65.52       26.98       9.27        
H           67.33       29.06       11.57       
H           67.51       29.98       9.16        
C           66.81       28.56       10.72       
C           66.14       27.4        10.8        
C           67.89       30.15       4.53        
C           66.78       29.72       5.19        
N           68.93       30.11       5.49        
C           68.51       29.38       6.62        
C           65.34       29.58       5.08        
O           64.53       29.77       4.15        
O           69.23       29.12       7.54        
C           63.57       28.74       6.75        
C           69.97       31.2        5.62        
H           69.64794    31.89313    6.39714     
H           70.35       31.66       4.63        
H           70.78       30.66       6.01        
H           63.47       29.0        7.8         
H           63.08871    27.77035    6.6226      
H           62.96       29.51       6.18        
N           65.0        28.82       6.31        
C           67.15       29.13       6.38        
C           66.1        28.6        7.06        
C           68.62       31.93       1.03        
C           67.23       31.9        1.28        
S           69.41       31.18       2.37        
H           65.92       31.28       2.79        
H           66.46       32.42       0.63        
C           66.87       31.31       2.48        
C           67.95       30.84       3.23        
C           71.39       33.27       -1.53       
C           70.15       33.39       -2.13       
S           71.18       32.66       0.13        
H           68.04       33.0        -1.56       
H           70.05       33.93       -3.1        
C           69.09       33.0        -1.29       
C           69.47       32.55       -0.05       
C           75.07       34.06       -2.57       
C           74.19       34.2        -3.62       
S           74.2        33.49       -1.18       
H           72.05       34.28       -3.96       
H           74.56       34.61       -4.58       
C           72.86       34.15       -3.24       
C           72.68       33.63       -2.03       
C           79.33       34.28       -4.65       
C           78.58       34.29       -3.54       
N           78.47       34.05       -5.72       
C           77.15       33.76       -5.26       
C           78.72       34.54       -2.11       
O           79.69       34.84       -1.39       
O           76.24       33.29       -5.91       
C           76.95       35.05       -0.36       
C           78.8        34.19       -7.12       
H           78.07049    34.76631    -7.68902    
H           79.16       33.25       -7.63       
H           79.65       34.87       -7.22       
H           76.24       34.45       0.22        
H           76.65387    36.09387    -0.25635    
H           77.82       35.05       0.25        
N           77.32       34.58       -1.7        
C           77.23       34.05       -3.86       
C           76.49       34.1        -2.69       
C           83.02       35.21       -4.76       
C           82.4        36.01       -3.87       
S           81.93       34.25       -5.68       
H           80.4        36.3        -3.27       
H           82.95       36.8        -3.35       
C           81.05       35.83       -3.92       
C           80.59       34.87       -4.77       
C           86.65       34.25       -5.74       
C           86.73       35.31       -4.86       
S           84.97       33.74       -6.01       
H           85.29       36.62       -3.82       
H           87.68       35.76       -4.66       
C           85.46       35.75       -4.46       
C           84.44       34.99       -4.94       
C           88.68       31.51       -7.54       
C           89.55       32.56       -7.22       
S           87.18       31.88       -6.8        
H           89.6        34.63       -6.25       
H           90.57       32.53       -7.52       
C           88.99       33.72       -6.57       
C           87.67       33.51       -6.38       
C           91.14       28.87       -10.73      
C           90.15       28.89       -9.78       
N           91.51       30.21       -10.97      
C           90.82       31.11       -10.08      
C           89.25       28.04       -9.08       
O           88.95       26.91       -9.06       
O           91.0        32.34       -10.06      
C           88.06       28.45       -6.92       
C           92.41       30.84       -11.87      
H           91.90536    31.37268    -12.67603   
H           93.05       30.13       -12.35      
H           93.08       31.59       -11.39      
H           87.14       28.88       -6.67       
H           88.75163    28.54683    -6.08312    
H           87.92       27.36       -7.09       
N           88.67       29.03       -8.14       
C           89.9        30.24       -9.39       
C           88.9        30.36       -8.43       
C           93.78       26.11       -11.59      
C           93.16       25.72       -10.41      
S           93.14       27.54       -12.14      
H           91.52       26.59       -9.01       
H           93.42       24.87       -9.81       
C           92.11       26.58       -9.96       
C           92.03       27.67       -10.83      
C           96.8        23.94       -12.7       
C           96.68       24.92       -13.61      
S           95.5        24.0        -11.59      
H           95.47       26.72       -13.96      
H           97.35       25.05       -14.47      
C           95.7        25.86       -13.28      
C           94.92       25.44       -12.21      
C           99.3        20.99       -13.37      
C           99.0        20.98       -12.02      
S           98.58       22.4        -14.14      
H           97.72       22.3        -10.69      
H           99.38       20.18       -11.36      
C           98.09       22.11       -11.68      
C           97.75       22.85       -12.69      
C           101.95      17.03       -13.7       
C           101.2       17.97       -14.31      
N           101.82      17.32       -12.33      
C           101.26      18.61       -12.04      
C           100.73      18.4        -15.6       
O           100.86      17.99       -16.68      
O           101.39      19.05       -10.93      
C           99.07       20.15       -16.22      
C           101.67      16.25       -11.31      
H           100.6882    15.77676    -11.32413   
H           102.04      16.67       -10.35      
H           102.36      15.44       -11.44      
H           99.24       21.21       -16.3       
H           98.02774    19.86886    -16.06915   
H           99.32       19.71       -17.2       
N           100.0       19.57       -15.3       
C           100.83      18.98       -13.39      
C           100.14      19.97       -13.99      
C           104.08      13.97       -15.0       
C           103.0       14.16       -15.81      
S           104.06      15.11       -13.71      
H           101.44      15.64       -16.18      
H           102.82      13.5        -16.61      
C           102.24      15.31       -15.5       
C           102.58      15.88       -14.27      
C           106.23      10.71       -14.53      
C           107.04      11.76       -14.4       
S           104.66      11.27       -15.03      
H           106.91      13.97       -14.46      
H           108.09      11.74       -14.19      
C           106.36      13.02       -14.56      
C           105.07      12.91       -14.93      
C           107.34      7.16        -15.62      
C           106.6       6.98        -14.58      
S           107.59      8.88        -15.93      
H           105.57      8.3         -13.17      
H           106.38      6.04        -14.14      
C           106.24      8.27        -14.01      
C           106.63      9.35        -14.61      
C           109.52      2.84        -16.12      
C           109.15      4.09        -16.64      
N           108.83      2.69        -14.93      
C           108.1       3.89        -14.65      
C           109.34      4.96        -17.74      
O           109.77      4.81        -18.92      
O           107.53      4.05        -13.56      
C           108.4       7.0         -18.51      
C           108.69      1.49        -14.11      
H           107.66635   1.1354      -14.23043   
H           109.07      1.63        -13.08      
H           109.21      0.63        -14.65      
H           108.48      8.02        -18.23      
H           107.41482   6.86533     -18.95652   
H           109.2       6.82        -19.3       
N           108.64      6.13        -17.46      
C           108.37      4.84        -15.71      
C           108.09      6.11        -16.16      
C           111.63      0.7         -18.7       
C           112.07      0.47        -17.41      
S           110.28      1.77        -18.6       
H           111.66      1.03        -15.32      
H           112.95      -0.22       -17.19      
C           111.37      1.15        -16.38      
C           110.4       1.94        -16.88      
C           113.91      -0.41       -21.71      
C           112.6       -0.37       -22.21      
S           113.95      0.09        -20.08      
H           110.64      0.26        -21.41      
H           112.26      -0.64       -23.26      
C           111.69      0.16        -21.22      
C           112.27      0.32        -19.97      
C           117.04      -2.3        -23.1       
C           117.31      -0.97       -22.99      
S           115.32      -2.54       -22.89      
H           116.45      0.89        -22.39      
H           118.3       -0.64       -23.08      
C           116.3       -0.18       -22.52      
C           115.11      -0.87       -22.32      
C           120.85      -3.86       -25.71      
C           119.63      -4.21       -25.0       
N           120.98      -2.49       -25.61      
C           119.97      -1.81       -24.85      
C           118.84      -5.33       -24.61      
O           118.94      -6.56       -24.76      
O           119.95      -0.61       -24.7       
C           116.89      -5.5        -23.11      
C           121.82      -1.55       -26.38      
H           121.24239   -1.09214    -27.18302   
H           122.67      -2.01       -26.97      
H           122.26      -0.83       -25.68      
H           115.88      -5.25       -23.49      
H           116.90406   -5.53514    -22.02066   
H           116.89      -6.47       -23.55      
N           117.89      -4.72       -23.73      
C           119.09      -2.97       -24.46      
C           117.94      -3.3        -23.75      
C           123.21      -6.17       -28.02      
C           121.97      -6.72       -27.84      
S           123.24      -4.57       -27.18      
H           120.06      -6.19       -26.8       
H           121.75      -7.72       -28.2       
C           121.05      -5.92       -27.1       
C           121.58      -4.71       -26.64      
C           126.39      -7.67       -29.83      
C           126.52      -6.29       -29.87      
S           124.8       -8.09       -29.26      
H           125.33      -4.56       -29.22      
H           127.45      -5.81       -30.23      
C           125.4       -5.64       -29.25      
C           124.35      -6.46       -28.85      
C           129.36      -9.96       -30.89      
C           128.26      -10.72      -30.69      
S           128.94      -8.3        -30.51      
H           126.18      -10.53      -30.18      
H           128.23      -11.79      -30.8       
C           127.08      -10.01      -30.3       
C           127.27      -8.7        -30.28      
C           132.07      -12.42      -33.95      
C           131.96      -11.48      -33.01      
N           130.72      -12.94      -34.12      
C           129.85      -12.39      -33.16      
C           132.8       -10.51      -32.26      
O           133.99      -10.2       -32.3       
O           128.71      -12.73      -33.09      
C           132.3       -8.88       -30.31      
C           130.12      -13.63      -35.23      
H           130.06403   -13.02134   -36.1325    
H           130.69      -14.54      -35.6       
H           129.18      -14.03      -34.92      
H           131.79      -9.01       -29.43      
H           132.28573   -7.84531    -30.65252   
H           133.24      -9.27       -30.0       
N           131.85      -9.9        -31.38      
C           130.62      -11.37      -32.52      
C           130.59      -10.32      -31.59      
C           135.03      -13.74      -36.04      
C           135.3       -12.47      -35.63      
S           133.52      -14.33      -35.41      
H           134.3       -10.96      -34.43      
H           136.22      -11.86      -35.92      
C           134.28      -11.93      -34.85      
C           133.18      -12.75      -34.78      
C           137.75      -15.4       -38.32      
C           136.5       -15.94      -38.69      
S           137.49      -14.24      -37.05      
H           134.46      -15.8       -38.03      
H           136.26      -16.63      -39.52      
C           135.44      -15.5       -37.85      
C           135.78      -14.58      -36.93      
C           141.26      -14.43      -39.75      
C           140.7       -15.38      -40.56      
S           140.17      -14.22      -38.4       
H           138.87      -16.56      -40.73      
H           141.07      -15.71      -41.5       
C           139.41      -15.81      -40.19      
C           138.97      -15.3       -39.0       
C           145.17      -13.19      -42.39      
C           144.45      -13.07      -41.25      
N           144.47      -14.18      -43.15      
C           143.18      -14.29      -42.66      
C           144.43      -12.41      -39.93      
O           145.27      -11.59      -39.34      
O           142.43      -14.99      -43.26      
C           142.87      -11.89      -38.04      
C           145.03      -15.33      -43.88      
H           145.30736   -16.11098   -43.17201   
H           145.86      -15.11      -44.65      
H           144.31      -15.76      -44.52      
H           142.29      -12.64      -37.43      
H           142.32862   -10.95115   -38.1565    
H           143.77      -11.61      -37.5       
N           143.16      -12.65      -39.31      
C           143.17      -13.7       -41.25      
C           142.47      -13.65      -40.07      
C           148.48      -11.79      -43.89      
C           148.5       -11.49      -42.59      
S           147.05      -12.73      -44.21      
H           147.26      -11.84      -40.83      
H           149.33      -10.92      -42.15      
C           147.35      -12.0       -41.87      
C           146.44      -12.67      -42.66      
C           151.75      -11.1       -45.82      
C           150.84      -11.63      -46.77      
S           151.1       -11.14      -44.26      
H           148.79      -12.39      -46.62      
H           151.14      -11.88      -47.88      
C           149.55      -11.82      -46.17      
C           149.52      -11.57      -44.79      
C           155.56      -10.43      -46.17      
C           154.95      -10.23      -47.39      
S           154.38      -10.9       -44.95      
H           152.83      -10.34      -48.17      
H           155.58      -10.1       -48.32      
C           153.5       -10.42      -47.36      
C           153.12      -10.76      -46.1       
H           74.26       0.33        13.69       
H           156.55      -10.08      -45.93      
