392

C           61.3        15.28       27.19       
C           62.05       16.39       27.45       
N           60.29       15.24       28.18       
C           60.62       16.16       29.27       
C           63.09       17.26       26.9        
O           63.63       17.26       25.83       
O           59.91       16.24       30.24       
C           64.31       19.22       27.91       
C           58.89       14.87       27.93       
H           58.22153    15.73048    27.95845    
H           58.68       14.05       28.62       
H           58.88       14.44       26.99       
H           64.63       19.44       28.9        
H           63.96372    20.14592    27.4508     
H           65.13       18.85       27.38       
N           63.24       18.31       27.94       
C           61.66       17.04       28.7        
C           62.32       18.21       28.95       
C           60.94       12.52       24.36       
C           61.53       13.66       23.84       
S           60.65       12.86       26.06       
H           62.28       15.64       24.47       
H           61.86       13.75       22.8        
C           61.84       14.68       24.81       
C           61.29       14.51       26.03       
C           60.4        9.47        21.92       
C           60.46       9.07        23.24       
S           60.61       11.21       21.93       
H           60.5        9.85        25.31       
H           60.49       7.97        23.43       
C           60.5        10.08       24.21       
C           60.67       11.32       23.66       
C           59.58       8.12        18.37       
C           59.94       7.03        19.16       
S           59.69       9.61        19.33       
H           60.31       6.6         21.25       
H           60.03       5.95        18.68       
C           60.04       7.36        20.54       
C           60.03       8.68        20.71       
C           60.42       6.85        13.75       
C           59.77       7.65        14.64       
N           60.82       5.74        14.45       
C           60.53       5.84        15.83       
C           58.98       8.92        14.73       
O           58.56       9.7         13.88       
O           60.67       4.87        16.6        
C           57.82       10.12       16.49       
C           62.02       5.0         14.13       
H           62.86344    5.52625     14.57695    
H           62.2        4.84        13.05       
H           61.98       4.05        14.56       
H           57.9        10.49       17.52       
H           56.77348    9.81594     16.46879    
H           57.98       10.98       15.85       
N           58.83       9.1         16.16       
C           59.95       7.13        16.0        
C           59.47       8.11        16.89       
C           60.88       7.44        9.94        
C           60.96       8.61        10.56       
S           60.68       6.13        11.06       
H           60.78       9.28        12.67       
H           61.14       9.58        10.11       
C           60.79       8.47        11.95       
C           60.69       7.18        12.38       
C           61.43       7.73        6.22        
C           60.57       6.71        6.36        
S           61.75       8.58        7.67        
H           59.65       5.7         8.0         
H           60.19       6.14        5.52        
C           60.24       6.53        7.68        
C           60.9        7.32        8.53        
C           62.92       8.3         2.71        
C           63.33       9.38        3.46        
S           61.77       7.31        3.52        
H           63.13       9.93        5.56        
H           64.05       10.21       3.13        
C           62.91       9.24        4.8         
C           61.98       8.22        4.99        
C           65.37       9.66        -1.01       
C           64.75       8.66        -0.33       
N           64.76       10.83       -0.51       
C           63.88       10.58       0.57        
C           64.67       7.19        -0.3        
O           65.28       6.25        -0.83       
O           63.36       11.53       1.13        
C           64.02       5.59        1.47        
C           64.64       12.09       -1.15       
H           63.74773    12.0972     -1.77603    
H           65.57       12.28       -1.76       
H           64.59       12.92       -0.34       
H           63.07       5.02        1.64        
H           64.6372     5.55493     2.36774     
H           64.51       4.98        0.74        
N           63.9        6.93        0.83        
C           63.85       9.12        0.62        
C           63.4        8.08        1.4         
C           67.86       9.59        -4.04       
C           67.24       8.44        -4.0        
S           67.46       10.6        -2.68       
H           65.52       7.62        -2.77       
H           67.2        7.79        -4.88       
C           66.29       8.37        -2.97       
C           66.27       9.5         -2.16       
C           70.78       10.36       -6.52       
C           70.17       11.51       -6.33       
S           70.03       9.08        -5.68       
H           68.38       12.14       -5.06       
H           70.5        12.38       -6.79       
C           69.04       11.37       -5.41       
C           68.81       10.09       -4.99       
C           73.76       9.99        -8.87       
C           73.07       8.78        -8.84       
S           72.87       11.22       -8.02       
H           71.2        7.97        -7.96       
H           73.49       7.81        -9.24       
C           71.79       8.85        -8.09       
C           71.68       10.07       -7.5        
C           77.97       8.85        -10.69      
C           77.04       9.83        -10.49      
N           77.52       7.7         -10.0       
C           76.18       7.84        -9.52       
C           76.74       11.24       -10.66      
O           77.29       12.23       -11.0       
O           75.5        6.88        -9.11       
C           74.77       12.58       -10.3       
C           78.34       6.69        -9.33       
H           78.52077    7.00815     -8.30325    
H           79.33       6.51        -9.84       
H           77.8        5.79        -9.39       
H           74.14       12.91       -9.53       
H           74.20787    12.52308    -11.23213   
H           75.53       13.4        -10.29      
N           75.45       11.37       -10.01      
C           75.96       9.29        -9.75       
C           75.02       10.2        -9.39       
C           81.44       8.76        -12.68      
C           80.92       9.96        -12.61      
S           80.27       7.72        -11.9       
H           79.17       11.09       -11.84      
H           81.45       10.87       -12.99      
C           79.6        10.14       -12.04      
C           79.18       9.01        -11.39      
C           84.86       8.17        -14.52      
C           84.43       6.95        -14.09      
S           83.69       9.41        -14.14      
H           82.75       6.24        -12.79      
H           84.95       5.95        -14.34      
C           83.23       7.0         -13.32      
C           82.65       8.24        -13.33      
C           87.67       9.98        -16.42      
C           87.93       8.62        -16.46      
S           86.29       10.25       -15.43      
H           86.97       6.73        -15.94      
H           88.86       8.24        -16.82      
C           86.89       7.75        -15.88      
C           85.97       8.57        -15.26      
C           91.87       12.05       -17.5       
C           90.5        12.14       -17.54      
N           92.27       10.81       -17.13      
C           91.05       9.93        -16.94      
C           89.43       13.03       -17.72      
O           89.38       14.2        -18.06      
O           91.1        8.9         -16.31      
C           86.92       12.9        -17.48      
C           93.62       10.27       -17.02      
H           93.74718    9.39389     -17.65589   
H           93.84       10.06       -15.95      
H           94.34       10.99       -17.31      
H           86.26       12.73       -16.67      
H           86.36058    12.65386    -18.38253   
H           86.97       14.0        -17.58      
N           88.25       12.26       -17.37      
C           89.91       10.9        -17.09      
C           88.6        11.02       -16.87      
C           94.65       14.74       -18.01      
C           93.49       15.33       -17.55      
S           94.32       13.05       -18.4       
H           91.49       14.73       -17.0       
H           93.33       16.39       -17.59      
C           92.42       14.43       -17.38      
C           92.77       13.14       -17.66      
C           98.23       15.95       -19.09      
C           97.46       16.99       -18.9       
S           97.4        14.48       -18.72      
H           95.37       17.5        -18.3       
H           97.73       17.96       -19.21      
C           96.12       16.69       -18.43      
C           95.93       15.35       -18.28      
C           101.78      16.46       -20.77      
C           101.8       15.33       -20.15      
S           100.3       17.31       -20.4       
H           100.32      13.92       -19.08      
H           102.64      14.63       -20.27      
C           100.58      14.9        -19.49      
C           99.63       15.91       -19.6       
C           106.28      16.67       -22.55      
C           104.98      17.08       -22.55      
N           106.42      15.79       -21.45      
C           105.11      15.6        -20.83      
C           104.07      17.96       -23.33      
O           104.3       18.71       -24.21      
O           105.0       14.94       -19.81      
C           101.64      18.59       -23.23      
C           107.54      14.89       -21.21      
H           107.30469   13.84891    -21.43105   
H           107.89      14.8        -20.19      
H           108.39      15.22       -21.82      
H           100.92      18.67       -22.44      
H           101.17173   18.03393    -24.04216   
H           102.02      19.56       -23.56      
N           102.84      17.84       -22.68      
C           104.22      16.5        -21.49      
C           102.9       17.01       -21.55      
C           108.56      16.64       -25.73      
C           109.3       17.17       -24.7       
S           106.97      16.14       -25.22      
H           108.94      17.49       -22.48      
H           110.32      17.56       -24.92      
C           108.55      17.17       -23.47      
C           107.24      16.8        -23.64      
C           110.02      15.01       -28.84      
C           108.77      15.45       -29.22      
S           110.39      15.3        -27.16      
H           107.15      16.65       -28.22      
H           108.41      15.31       -30.25      
C           108.15      16.26       -28.16      
C           108.98      16.32       -27.03      
C           111.7       12.35       -31.03      
C           112.71      12.99       -30.29      
S           110.09      12.99       -30.66      
H           112.88      14.55       -28.77      
H           113.69      12.54       -30.32      
C           112.24      14.01       -29.49      
C           110.86      14.14       -29.61      
C           114.29      9.68        -34.05      
C           113.07      9.93        -33.56      
N           115.17      10.71       -33.7       
C           114.5       11.56       -32.74      
C           111.67      9.64        -33.59      
O           111.01      8.75        -34.08      
O           114.86      12.65       -32.35      
C           109.77      10.01       -32.05      
C           116.57      10.83       -34.12      
H           117.16596   11.19035    -33.2815    
H           116.68      11.6        -34.87      
H           116.87      9.88        -34.56      
H           109.23      10.95       -31.75      
H           109.6032    9.3283      -31.216     
H           109.22      9.68        -32.91      
N           111.1       10.33       -32.53      
C           113.17      11.03       -32.64      
C           111.95      11.35       -32.05      
C           115.37      6.33        -35.93      
C           114.11      6.66        -36.36      
S           115.9       7.59        -34.88      
H           112.59      8.18        -35.88      
H           113.48      6.01        -36.99      
C           113.62      7.87        -35.72      
C           114.53      8.58        -34.98      
C           118.17      3.65        -36.43      
C           117.4       3.76        -37.61      
S           117.54      4.7         -35.21      
H           115.56      4.78        -38.18      
H           117.81      3.27        -38.48      
C           116.28      4.61        -37.47      
C           116.3       5.31        -36.29      
C           121.35      1.39        -36.55      
C           120.93      1.47        -35.28      
S           120.27      2.29        -37.48      
H           119.14      2.31        -34.09      
H           121.48      1.0         -34.5       
C           119.73      2.28        -35.06      
C           119.34      2.86        -36.17      
C           124.57      -2.12       -36.17      
C           124.07      -1.06       -36.9       
N           123.65      -2.41       -35.18      
C           122.47      -1.46       -35.28      
C           124.37      -0.27       -38.09      
O           125.2       -0.32       -38.89      
O           121.52      -1.52       -34.52      
C           123.34      1.82        -38.99      
C           123.59      -3.51       -34.22      
H           122.84927   -4.27209    -34.46216   
H           123.41      -3.21       -33.19      
H           124.56      -4.0        -34.14      
H           123.0       2.8         -38.6       
H           122.818     1.63904     -39.92961   
H           124.4       1.97        -39.18      
N           123.33      0.72        -38.08      
C           122.79      -0.59       -36.38      
C           122.42      0.51        -37.04      
C           128.05      -3.78       -36.89      
C           127.42      -3.66       -38.07      
S           127.07      -3.09       -35.63      
H           125.49      -2.8        -38.8       
H           127.85      -3.93       -39.03      
C           126.11      -3.06       -37.96      
C           125.67      -2.98       -36.66      
C           131.6       -4.42       -35.59      
C           131.54      -5.03       -36.84      
S           130.11      -3.7        -35.17      
H           130.01      -5.52       -38.32      
H           132.34      -5.59       -37.35      
C           130.23      -5.03       -37.39      
C           129.34      -4.23       -36.62      
C           135.21      -3.75       -34.22      
C           134.28      -3.52       -33.22      
S           134.37      -4.38       -35.55      
H           132.12      -3.68       -32.87      
H           134.62      -3.18       -32.27      
C           132.94      -3.8        -33.5       
C           132.81      -4.13       -34.85      
C           139.29      -1.93       -32.3       
C           138.72      -2.7        -33.23      
N           138.29      -1.41       -31.52      
C           137.02      -1.74       -32.04      
C           138.97      -3.67       -34.27      
O           139.99      -4.08       -34.76      
O           135.99      -1.33       -31.58      
C           137.73      -5.34       -35.66      
C           138.31      -0.55       -30.38      
H           138.29594   -1.13333    -29.45933   
H           139.18      0.09        -30.35      
H           137.4       0.11        -30.33      
H           136.91      -5.31       -36.42      
H           137.80306   -6.27513    -35.10476   
H           138.64      -5.38       -36.23      
N           137.71      -4.09       -34.83      
C           137.27      -2.61       -33.17      
C           136.67      -3.43       -34.12      
C           143.07      -1.28       -31.71      
C           142.93      -1.48       -33.07      
S           141.56      -1.24       -30.79      
H           141.18      -1.94       -34.32      
H           143.77      -1.53       -33.74      
C           141.53      -1.7        -33.34      
C           140.7       -1.57       -32.25      
C           146.56      -0.07       -30.52      
C           145.73      -0.1        -29.43      
S           145.72      -0.56       -31.97      
H           143.54      -0.4        -29.03      
H           146.0       0.34        -28.46      
C           144.39      -0.4        -29.75      
C           144.25      -0.8        -31.05      
C           150.19      1.24        -29.75      
C           149.96      1.23        -31.08      
S           148.82      0.49        -28.99      
H           148.44      0.78        -32.61      
H           150.58      1.7         -31.84      
C           148.74      0.73        -31.55      
C           147.98      0.27        -30.53      
C           153.67      4.53        -29.37      
C           152.95      3.54        -28.78      
N           153.03      4.86        -30.52      
C           151.91      3.9         -30.86      
C           153.03      2.63        -27.64      
O           153.78      2.5         -26.71      
O           151.2       3.95        -31.85      
C           151.43      0.97        -26.8       
C           152.87      6.27        -30.9       
H           151.87696   6.65031     -30.66054   
H           153.17      6.38        -31.9       
H           153.49      6.82        -30.24      
H           151.05      0.04        -27.17      
H           150.76071   1.42089     -26.0673    
H           152.39      0.63        -26.27      
N           151.88      1.8         -27.89      
C           151.88      3.08        -29.65      
C           151.2       2.09        -29.07      
C           157.12      6.2         -28.39      
C           156.59      5.67        -27.33      
S           156.23      5.66        -29.79      
H           154.7       4.73        -26.74      
H           157.01      5.73        -26.33      
C           155.35      5.07        -27.54      
C           154.9       5.18        -28.86      
C           160.65      7.58        -28.21      
C           160.28      7.71        -29.46      
S           159.41      6.84        -27.25      
H           158.52      7.58        -30.7       
H           160.95      8.09        -30.25      
C           158.93      7.44        -29.7       
C           158.33      6.93        -28.56      
C           163.98      7.4         -26.19      
C           164.19      8.08        -27.35      
S           162.26      6.98        -26.06      
H           163.02      8.89        -29.04      
H           165.11      8.55        -27.63      
C           162.98      8.28        -28.13      
C           161.95      7.57        -27.68      
H           61.74       19.05       29.41       
H           164.76      6.9         -25.67      
