392

C           76.88       0.47        6.36        
C           76.0        0.47        7.39        
N           77.39       -0.84       6.24        
C           76.76       -1.75       7.16        
C           75.13       1.32        8.19        
O           74.96       2.52        8.35        
O           76.92       -2.96       7.06        
C           73.2        0.71        9.7         
C           78.64       -1.25       5.63        
H           79.3528     -1.65227    6.34986     
H           79.11       -0.39       5.26        
H           78.43       -2.01       4.88        
H           73.25       0.45        10.76       
H           72.36647    0.20988     9.20683     
H           73.04       1.77        9.69        
N           74.4        0.41        9.02        
C           75.84       -0.84       7.85        
C           74.83       -0.85       8.73        
C           78.02       3.36        3.8         
C           77.32       3.87        4.86        
S           78.15       1.61        4.07        
H           76.51       3.24        6.82        
H           77.15       4.95        5.02        
C           77.07       2.92        5.94        
C           77.37       1.67        5.61        
C           78.66       5.77        0.58        
C           79.43       4.64        0.43        
S           77.72       5.62        2.1         
H           79.88       2.71        1.56        
H           79.98       4.52        -0.5        
C           79.33       3.64        1.57        
C           78.42       4.04        2.53        
C           78.33       8.86        -1.88       
C           77.83       9.18        -0.64       
S           78.76       7.16        -1.94       
H           77.47       8.19        1.34        
H           77.43       10.2        -0.47       
C           77.89       8.13        0.3         
C           78.4        6.95        -0.21       
C           76.79       12.62       -4.28       
C           77.67       11.59       -4.2        
N           76.0        12.56       -3.12       
C           76.24       11.34       -2.4        
C           78.92       11.03       -4.8        
O           79.64       11.34       -5.72       
O           75.49       10.99       -1.47       
C           80.7        9.45        -4.0        
C           75.16       13.6        -2.5        
H           75.49991    13.84785    -1.49445    
H           74.11       13.23       -2.48       
H           75.16       14.47       -3.18       
H           80.79       8.38        -3.9        
H           81.31879    9.99847     -3.2898     
H           81.11       9.7         -5.01       
N           79.28       9.94        -3.95       
C           77.4        10.79       -3.09       
C           78.28       9.73        -3.06       
C           75.96       15.14       -7.27       
C           76.95       14.35       -7.7        
S           75.54       14.73       -5.66       
H           78.07       12.65       -6.94       
H           77.33       14.31       -8.77       
C           77.29       13.35       -6.7        
C           76.71       13.45       -5.51       
C           73.9        17.2        -9.92       
C           74.51       18.07       -9.0        
S           74.29       15.58       -9.44       
H           75.72       17.93       -7.17       
H           74.48       19.13       -9.11       
C           75.17       17.41       -7.92       
C           75.17       16.03       -8.01       
C           72.31       18.9        -13.05      
C           71.8        17.6        -12.95      
S           73.69       19.07       -11.99      
H           71.84       15.91       -11.53      
H           71.09       17.17       -13.6       
C           72.23       16.93       -11.81      
C           73.19       17.57       -11.11      
C           70.56       20.32       -17.31      
C           71.22       20.53       -16.08      
N           70.27       19.0        -17.28      
C           70.69       18.33       -16.11      
C           71.8        21.69       -15.42      
O           71.79       22.92       -15.66      
O           70.3        17.2        -15.82      
C           72.43       22.04       -13.09      
C           69.79       18.32       -18.48      
H           70.37924    17.43614    -18.72432   
H           70.03       19.0        -19.34      
H           68.75       18.07       -18.55      
H           73.15       21.63       -12.41      
H           71.59262    22.35491    -12.46733   
H           72.89       22.93       -13.44      
N           72.15       21.11       -14.18      
C           71.33       19.35       -15.32      
C           72.0        19.73       -14.2       
C           70.07       23.12       -20.02      
C           69.65       23.58       -18.84      
S           70.57       21.5        -19.84      
H           69.4        22.85       -16.82      
H           69.32       24.56       -18.68      
C           69.72       22.64       -17.83      
C           70.11       21.39       -18.23      
C           70.34       24.04       -23.76      
C           69.57       25.04       -23.17      
S           70.96       22.99       -22.58      
H           68.67       25.38       -21.15      
H           69.11       25.78       -23.8       
C           69.36       24.81       -21.77      
C           70.16       23.78       -21.28      
C           71.68       24.83       -27.3       
C           71.86       23.52       -27.09      
S           70.75       25.44       -25.99      
H           71.55       22.04       -25.43      
H           72.34       22.89       -27.79      
C           71.38       23.08       -25.82      
C           70.76       23.98       -25.08      
C           74.18       25.53       -31.41      
C           73.43       26.12       -30.37      
N           74.24       24.18       -31.2       
C           73.46       23.73       -30.05      
C           73.07       27.34       -29.77      
O           73.42       28.43       -30.11      
O           73.09       22.54       -29.8       
C           71.9        28.12       -27.8       
C           74.43       23.12       -32.2       
H           75.13276    22.35524    -31.86929   
H           74.95       23.52       -33.1       
H           73.52       22.61       -32.54      
H           72.1        27.93       -26.75      
H           70.85967    28.40502    -27.95676   
H           72.56       28.98       -28.08      
N           72.3        27.03       -28.57      
C           72.93       25.04       -29.52      
C           72.22       25.62       -28.42      
C           76.67       27.25       -33.96      
C           75.79       28.17       -33.54      
S           76.3        25.69       -33.29      
H           73.91       28.17       -32.27      
H           75.7        29.25       -33.89      
C           74.76       27.65       -32.67      
C           74.87       26.24       -32.46      
C           79.78       28.31       -36.04      
C           79.69       26.94       -36.03      
S           78.57       29.0        -35.0       
H           78.31       25.35       -35.29      
H           80.45       26.33       -36.59      
C           78.59       26.4        -35.33      
C           77.86       27.42       -34.75      
C           82.63       30.0        -37.97      
C           81.74       31.01       -37.56      
S           81.98       28.49       -37.47      
H           79.7        31.12       -36.5       
H           81.94       32.04       -37.7       
C           80.53       30.5        -36.89      
C           80.58       29.17       -36.74      
C           86.54       32.2        -39.62      
C           85.77       31.11       -39.63      
N           85.8        33.2        -38.99      
C           84.65       32.64       -38.39      
C           85.81       29.73       -39.97      
O           86.64       29.1        -40.7       
O           83.88       33.4        -37.78      
C           84.29       27.77       -39.66      
C           86.16       34.64       -38.93      
H           86.38998    35.00352    -37.92847   
H           85.32       35.28       -39.21      
H           87.08       34.87       -39.51      
H           83.21       27.69       -39.78      
H           84.68545    26.97204    -39.03152   
H           84.66       27.54       -40.64      
N           84.63       29.17       -39.38      
C           84.61       31.29       -38.77      
C           83.96       30.13       -38.62      
C           89.97       32.82       -41.52      
C           89.25       31.96       -42.2       
S           89.24       33.13       -39.98      
H           87.16       31.08       -42.01      
H           89.58       31.4        -43.04      
C           87.94       31.73       -41.61      
C           87.7        32.48       -40.46      
C           93.73       33.31       -42.76      
C           93.35       34.4        -42.1       
S           92.43       32.2        -42.66      
H           91.54       35.24       -41.19      
H           94.02       35.21       -41.98      
C           92.02       34.37       -41.65      
C           91.3        33.28       -41.88      
C           96.79       31.96       -44.69      
C           96.64       33.31       -44.96      
S           95.5        31.54       -43.62      
H           95.34       35.08       -44.26      
H           97.26       33.85       -45.68      
C           95.58       34.04       -44.24      
C           94.91       33.12       -43.55      
C           99.5        30.66       -48.53      
C           99.06       30.42       -47.26      
N           99.19       31.98       -48.71      
C           98.34       32.49       -47.64      
C           98.99       29.39       -46.22      
O           99.56       28.26       -46.16      
O           97.78       33.58       -47.8       
C           97.95       29.11       -43.92      
C           99.44       32.75       -49.93      
H           100.24131   33.45624    -49.71269   
H           98.52       33.34       -50.24      
H           99.74       32.09       -50.72      
H           96.95       29.22       -43.47      
H           98.68627    29.35778    -43.15541   
H           98.05       28.05       -44.3       
N           98.07       29.89       -45.19      
C           98.21       31.45       -46.7       
C           97.66       31.17       -45.52      
C           100.77      28.23       -51.38      
C           101.25      27.86       -50.16      
S           99.76       29.58       -51.08      
H           101.05      28.5        -48.03      
H           101.81      26.96       -49.97      
C           100.9       28.73       -49.07      
C           100.2       29.78       -49.39      
C           101.05      25.42       -54.18      
C           100.7       26.6        -54.78      
S           101.55      25.75       -52.53      
H           100.25      28.69       -54.11      
H           100.37      26.68       -55.8       
C           100.69      27.78       -53.89      
C           100.96      27.43       -52.59      
C           101.76      21.71       -54.8       
C           100.76      22.08       -55.68      
S           102.32      23.1        -53.91      
H           99.76       23.97       -56.37      
H           100.31      21.36       -56.43      
C           100.5       23.48       -55.71      
C           101.2       24.13       -54.72      
C           101.5       16.88       -54.9       
C           102.18      18.0        -54.54      
N           100.39      17.3        -55.65      
C           100.36      18.72       -55.77      
C           103.29      18.46       -53.76      
O           104.11      17.87       -53.14      
O           99.37       19.27       -56.21      
C           104.12      20.63       -52.8       
C           99.6        16.47       -56.63      
H           99.78781    16.69259    -57.68037   
H           98.54       16.43       -56.39      
H           99.86       15.42       -56.49      
H           103.59      21.35       -52.22      
H           104.95664   21.17624    -53.23561   
H           104.43      19.92       -52.04      
N           103.25      19.92       -53.77      
C           101.57      19.17       -55.08      
C           102.18      20.34       -54.6       
C           101.08      13.43       -53.08      
C           102.34      13.94       -52.9       
S           100.21      14.47       -54.14      
H           103.52      15.63       -53.58      
H           103.04      13.59       -52.08      
C           102.61      15.14       -53.6       
C           101.57      15.53       -54.4       
C           100.25      9.88        -51.7       
C           99.19       10.32       -52.54      
S           101.35      11.19       -51.59      
H           98.66       12.06       -53.92      
H           98.32       9.72        -52.78      
C           99.33       11.62       -53.2       
C           100.42      12.27       -52.61      
C           101.04      6.9         -49.51      
C           99.84       6.66        -50.11      
S           101.65      8.49        -49.92      
H           98.57       7.57        -51.6       
H           99.31       5.79        -50.04      
C           99.45       7.66        -50.99      
C           100.32      8.66        -51.01      
C           102.55      2.63        -47.55      
C           102.75      3.96        -47.79      
N           101.32      2.27        -48.11      
C           100.68      3.45        -48.69      
C           103.66      5.05        -47.54      
O           104.7       5.16        -46.94      
O           99.59       3.53        -49.13      
C           103.51      7.56        -47.51      
C           100.72      0.92        -48.32      
H           100.72677   0.64928     -49.37582   
H           99.78       0.8         -47.82      
H           101.34      0.09        -47.94      
H           102.7       8.37        -47.45      
H           104.46461   7.87113     -47.93427   
H           103.71      7.38        -46.45      
N           103.04      6.26        -48.12      
C           101.64      4.54        -48.53      
C           101.89      5.96        -48.79      
C           105.16      0.11        -46.29      
C           105.83      1.02        -47.0       
S           103.39      0.29        -46.23      
H           105.22      2.93        -48.0       
H           106.93      1.14        -46.97      
C           104.93      2.02        -47.42      
C           103.59      1.73        -47.23      
C           106.67      -2.69       -43.98      
C           107.69      -2.07       -44.58      
S           105.15      -2.09       -44.63      
H           107.98      -0.18       -45.81      
H           108.73      -2.25       -44.34      
C           107.27      -0.86       -45.3       
C           105.91      -0.87       -45.54      
C           107.14      -6.12       -42.2       
C           106.08      -5.45       -41.6       
S           108.04      -4.96       -43.15      
H           104.78      -3.62       -41.98      
H           105.49      -5.99       -40.86      
C           105.74      -4.19       -42.15      
C           106.69      -3.8        -43.07      
C           108.33      -9.74       -39.38      
C           108.35      -9.2        -40.65      
N           107.55      -8.93       -38.52      
C           107.08      -7.74       -39.27      
C           108.84      -9.36       -41.98      
O           109.56      -10.19      -42.41      
O           106.51      -6.78       -38.82      
C           108.53      -8.11       -44.11      
C           107.02      -9.09       -37.18      
H           106.01362   -9.50814    -37.20126   
H           107.7       -9.68       -36.57      
H           106.88      -8.09       -36.75      
H           108.77      -7.12       -44.45      
H           107.64305   -8.52824    -44.58592   
H           109.41      -8.82       -44.29      
N           108.45      -8.17       -42.69      
C           107.6       -8.0        -40.61      
C           107.68      -7.37       -41.84      
C           110.21      -12.92      -38.13      
C           109.97      -13.02      -39.49      
S           109.57      -11.38      -37.48      
H           108.73      -11.82      -40.99      
H           110.25      -13.89      -40.17      
C           109.13      -11.92      -39.97      
C           108.83      -11.0       -38.99      
C           111.44      -14.92      -35.01      
C           111.93      -15.64      -36.05      
S           110.59      -13.51      -35.52      
H           111.94      -15.37      -38.31      
H           112.43      -16.59      -36.0       
C           111.63      -14.99      -37.31      
C           110.86      -13.86      -37.2       
C           110.56      -16.67      -31.58      
C           110.88      -15.37      -31.37      
S           110.63      -16.92      -33.34      
H           111.71      -13.68      -32.51      
H           110.88      -14.93      -30.44      
C           111.3       -14.67      -32.55      
C           111.28      -15.37      -33.68      
C           108.96      -17.43      -27.2       
C           109.51      -17.94      -28.33      
N           108.6       -16.14      -27.42      
C           109.07      -15.74      -28.69      
C           109.97      -19.17      -28.95      
O           110.1       -20.34      -28.53      
O           108.94      -14.56      -29.08      
C           111.09      -19.88      -31.01      
C           108.19      -15.28      -26.36      
H           109.05896   -14.72828   -26.00138   
H           107.65      -15.74      -25.57      
H           107.42      -14.62      -26.73      
H           111.85      -19.52      -31.69      
H           110.42485   -20.55901   -31.5435    
H           111.71      -20.36      -30.28      
N           110.36      -18.85      -30.31      
C           109.57      -16.94      -29.33      
C           110.14      -17.49      -30.5       
C           108.31      -19.53      -24.01      
C           109.32      -20.04      -24.71      
S           107.66      -18.08      -24.65      
H           110.51      -19.42      -26.51      
H           109.8       -21.0       -24.4       
C           109.65      -19.28      -25.83      
C           108.87      -18.13      -25.95      
C           106.84      -21.56      -20.98      
C           106.14      -20.34      -21.02      
S           108.06      -21.59      -22.22      
H           106.26      -18.52      -22.35      
H           105.35      -20.03      -20.25      
C           106.67      -19.51      -22.07      
C           107.63      -20.09      -22.85      
C           106.76      -23.76      -17.73      
C           107.55      -24.36      -18.67      
S           106.17      -22.23      -18.38      
H           108.13      -24.19      -20.81      
H           107.89      -25.37      -18.54      
C           107.59      -23.69      -19.96      
C           106.91      -22.54      -19.9       
H           74.28       -1.77       8.96        
H           106.64      -24.1       -16.69      
