392

C           46.49       25.02       33.64       
C           46.98       26.12       33.07       
N           45.53       25.39       34.59       
C           45.35       26.84       34.51       
C           47.96       26.59       32.13       
O           48.87       26.04       31.5        
O           44.44       27.47       35.05       
C           48.54       28.77       31.14       
C           45.06       24.5        35.68       
H           45.12316    25.04742    36.62045    
H           45.69       23.62       35.61       
H           44.01       24.19       35.57       
H           48.61       29.75       31.58       
H           48.08758    28.80591    30.14898    
H           49.5        28.27       31.12       
N           47.78       27.98       32.04       
C           46.21       27.27       33.44       
C           46.62       28.38       32.8        
C           48.06       21.49       33.38       
C           46.74       21.42       33.0        
S           48.53       23.19       33.74       
H           45.05       22.95       33.04       
H           46.15       20.52       32.84       
C           46.12       22.74       33.12       
C           46.93       23.75       33.33       
C           50.23       18.28       32.98       
C           50.92       19.12       33.8        
S           48.67       18.99       32.59       
H           50.67       21.2        34.5        
H           51.92       18.9        34.16       
C           50.23       20.36       33.96       
C           49.0        20.44       33.43       
C           51.63       14.69       32.14       
C           50.4        14.86       31.52       
S           52.08       16.17       32.95       
H           48.71       16.26       31.67       
H           49.98       14.14       30.85       
C           49.79       16.08       31.87       
C           50.6        16.97       32.48       
C           51.88       9.92        32.13       
C           52.54       11.12       32.21       
N           50.54       10.18       32.21       
C           50.26       11.59       32.17       
C           53.85       11.74       32.19       
O           54.98       11.33       32.02       
O           49.13       12.06       32.22       
C           54.68       14.11       32.08       
C           49.36       9.37        32.31       
H           48.79524    9.39824     31.37815    
H           48.77       9.71        33.23       
H           49.56       8.34        32.57       
H           54.5        15.06       32.65       
H           54.95581    14.2868     31.0404     
H           55.47       13.73       32.68       
N           53.56       13.14       32.23       
C           51.6        12.17       32.09       
C           52.21       13.38       32.23       
C           53.2        6.21        31.87       
C           54.19       7.01        32.45       
S           51.76       7.16        31.59       
H           54.38       9.18        32.97       
H           55.15       6.69        32.82       
C           53.79       8.38        32.54       
C           52.48       8.6         32.18       
C           53.55       2.29        31.6        
C           52.2        2.69        31.59       
S           54.49       3.76        31.74       
H           51.01       4.45        31.68       
H           51.43       1.95        31.64       
C           51.95       4.05        31.82       
C           53.07       4.79        31.75       
C           56.01       -0.55       31.5        
C           54.77       -1.16       31.78       
S           55.91       1.14        31.66       
H           52.66       -0.35       32.01       
H           54.65       -2.29       31.95       
C           53.74       -0.14       31.88       
C           54.24       1.12        31.62       
C           58.91       -4.42       30.99       
C           58.7        -3.01       31.15       
N           57.68       -4.98       30.98       
C           56.65       -3.98       31.04       
C           59.47       -1.74       31.16       
O           60.63       -1.49       31.1        
O           55.42       -4.19       31.0        
C           58.94       0.57        31.9        
C           57.2        -6.3        31.09       
H           56.76601    -6.67515    30.16317    
H           56.61       -6.51       31.99       
H           57.99       -7.01       31.33       
H           58.26       1.04        32.64       
H           59.28089    1.23815     31.10913    
H           59.85       0.3         32.38       
N           58.44       -0.73       31.39       
C           57.33       -2.7        31.2        
C           57.14       -1.32       31.32       
C           62.16       -6.22       29.98       
C           62.44       -5.18       30.75       
S           60.45       -6.47       29.89       
H           61.31       -3.55       31.81       
H           63.44       -4.82       30.87       
C           61.31       -4.48       31.28       
C           60.14       -5.07       30.85       
C           64.04       -8.55       27.62       
C           64.98       -7.72       28.15       
S           62.43       -8.28       28.24       
H           64.99       -6.03       29.7        
H           66.02       -7.64       27.89       
C           64.43       -6.86       29.22       
C           63.08       -7.0        29.33       
C           65.36       -10.88      24.8        
C           64.15       -11.37      25.2        
S           65.58       -9.38       25.57       
H           62.45       -10.8       26.65       
H           63.8        -12.32      24.74       
C           63.46       -10.59      26.26       
C           64.21       -9.5        26.6        
C           67.28       -14.81      23.06       
C           67.14       -13.5       22.91       
N           66.76       -15.2       24.28       
C           65.91       -14.21      24.79       
C           67.43       -12.35      22.02       
O           68.03       -12.13      20.93       
O           65.28       -14.37      25.83       
C           66.64       -9.99       22.1        
C           67.16       -16.27      25.11       
H           67.88084    -15.9133    25.8457     
H           67.63       -17.06      24.51       
H           66.23       -16.76      25.56       
H           66.91       -9.2        22.76       
H           65.66269    -9.80587    21.65384    
H           67.33       -9.93       21.25       
N           66.85       -11.24      22.78       
C           66.28       -13.01      23.99       
C           66.2        -11.66      23.92       
C           69.04       -17.54      20.88       
C           69.57       -16.33      20.59       
S           67.69       -17.32      21.89       
H           69.36       -14.13      21.23       
H           70.35       -16.25      19.87       
C           68.95       -15.2       21.25       
C           68.09       -15.62      22.19       
C           70.57       -21.03      19.95       
C           70.1        -20.41      18.8        
S           69.99       -20.18      21.36       
H           69.08       -18.47      18.35       
H           70.18       -20.83      17.84       
C           69.51       -19.12      19.05       
C           69.45       -18.84      20.39       
C           72.72       -24.25      21.1        
C           72.34       -24.39      19.82       
S           72.17       -22.68      21.61       
H           71.04       -23.5       18.29       
H           72.68       -25.18      19.18       
C           71.48       -23.39      19.25       
C           71.36       -22.28      20.1        
C           76.8        -26.7       21.45       
C           75.73       -26.17      22.1        
N           76.81       -26.2       20.19       
C           75.55       -25.51      19.88       
C           75.05       -26.06      23.39       
O           75.11       -26.55      24.5        
O           75.21       -25.0       18.83       
C           72.73       -25.39      24.01       
C           78.06       -25.98      19.34       
H           78.018      -25.07698   18.73099    
H           78.21       -26.89      18.78       
H           78.95       -25.96      19.98       
H           71.75       -25.34      23.53       
H           72.76501    -24.62669   24.78732    
H           72.78       -26.38      24.53       
N           73.83       -25.4       23.1        
C           74.97       -25.42      21.21       
C           73.81       -24.95      21.8        
C           79.32       -29.6       22.52       
C           78.98       -28.87      23.67       
S           78.78       -28.73      21.12       
H           77.55       -27.19      24.09       
H           79.08       -29.27      24.67       
C           78.04       -27.84      23.34       
C           77.85       -27.56      21.99       
C           81.13       -32.97      21.6        
C           81.38       -32.68      22.9        
S           80.1        -31.76      20.89       
H           80.64       -31.16      24.4        
H           82.0        -33.3       23.51       
C           80.61       -31.56      23.4        
C           79.87       -30.94      22.47       
C           82.87       -35.73      19.31       
C           82.35       -36.24      20.48       
S           82.45       -34.06      19.32       
H           81.13       -35.7       22.24       
H           82.5        -37.23      20.75       
C           81.61       -35.41      21.29       
C           81.54       -34.12      20.84       
C           85.23       -39.47      17.46       
C           84.86       -38.14      17.36       
N           84.65       -40.06      18.57       
C           83.88       -39.05      19.15       
C           85.05       -36.86      16.56       
O           85.81       -36.57      15.66       
O           83.18       -39.45      20.05       
C           84.12       -34.6       16.59       
C           85.17       -41.09      19.45       
H           85.78845    -40.70886   20.26262    
H           85.82       -41.7       18.89       
H           84.4        -41.78      19.81       
H           84.19       -33.82      17.4        
H           83.23157    -34.55103   15.9604     
H           84.99       -34.35      16.01       
N           84.23       -35.89      17.26       
C           84.01       -37.83      18.46       
C           83.65       -36.51      18.38       
C           87.49       -41.44      14.97       
C           86.74       -40.5       14.3        
S           87.03       -41.44      16.62       
H           85.47       -38.88      14.79       
H           86.91       -40.15      13.29       
C           85.87       -39.81      15.13       
C           85.87       -40.18      16.42       
C           90.29       -43.98      14.11       
C           89.89       -43.36      12.95       
S           89.4        -43.35      15.43       
H           88.24       -41.96      12.25       
H           90.27       -43.5       11.98       
C           88.76       -42.46      13.07       
C           88.42       -42.37      14.37       
C           93.77       -45.62      14.1        
C           92.95       -46.44      14.82       
S           92.94       -44.31      13.43       
H           90.8        -46.59      15.29       
H           93.32       -47.34      15.28       
C           91.64       -45.92      14.98       
C           91.48       -44.75      14.29       
C           98.2        -46.51      15.82       
C           97.34       -46.08      14.84       
N           97.4        -47.15      16.75       
C           95.96       -47.04      16.39       
C           97.41       -45.45      13.55       
O           98.42       -45.02      13.0        
O           95.08       -47.48      17.12       
C           95.74       -44.71      11.87       
C           97.75       -47.75      18.02       
H           97.56864    -48.82472   18.00657    
H           97.2        -47.37      18.86       
H           98.82       -47.73      18.24       
H           95.07       -43.83      11.86       
H           95.30875    -45.45232   11.19838    
H           96.72       -44.3       11.49       
N           96.05       -45.25      13.17       
C           95.96       -46.25      15.14       
C           95.18       -45.72      14.19       
C           102.11      -46.23      16.05       
C           101.56      -45.09      15.52       
S           100.82      -47.27      16.62       
H           99.56       -44.23      15.18       
H           102.22      -44.31      15.15       
C           100.16      -44.99      15.61       
C           99.57       -46.15      16.02       
C           106.04      -46.43      16.75       
C           105.45      -47.65      16.92       
S           104.77      -45.31      16.39       
H           103.42      -48.57      16.71       
H           106.09      -48.57      17.0        
C           104.05      -47.68      16.72       
C           103.5       -46.49      16.36       
C           109.33      -44.58      16.14       
C           109.64      -45.91      16.2        
S           107.71      -44.34      16.58       
H           108.46      -47.84      16.33       
H           110.59      -46.32      15.87       
C           108.48      -46.72      16.46       
C           107.37      -46.04      16.7        
C           113.63      -42.74      14.7        
C           112.26      -42.63      14.95       
N           113.93      -44.05      15.05       
C           112.81      -44.77      15.65       
C           111.2       -41.66      14.75       
O           111.21      -40.53      14.35       
O           112.88      -45.89      16.15       
C           108.68      -41.69      14.98       
C           114.79      -44.95      14.3        
H           114.26508   -45.35987   13.43712    
H           114.93      -45.84      14.92       
H           115.78      -44.46      14.14       
H           108.09      -41.95      15.87       
H           108.13749   -42.09865   14.12748    
H           108.8       -40.6       15.02       
N           109.99      -42.34      15.16       
C           111.72      -43.78      15.52       
C           110.32      -43.61      15.71       
C           115.02      -40.69      11.67       
C           116.08      -41.14      12.4        
S           113.58      -41.03      12.43       
H           116.29      -42.35      14.17       
H           117.07      -41.1       12.0        
C           115.65      -41.88      13.49       
C           114.34      -41.9       13.71       
C           114.99      -38.48      8.48        
C           113.8       -39.1       8.52        
S           115.97      -38.79      9.85        
H           112.79      -40.59      9.76        
H           113.15      -39.05      7.71        
C           113.64      -39.9       9.65        
C           114.8       -40.0       10.43       
C           115.69      -36.57      5.24        
C           116.9       -36.79      5.8         
S           114.48      -37.4       6.1         
H           117.67      -37.86      7.57        
H           117.83      -36.4       5.38        
C           116.82      -37.57      7.0         
C           115.52      -37.82      7.35        
C           116.68      -34.1       1.17        
C           115.77      -34.46      2.15        
N           117.83      -34.77      1.46        
C           117.67      -35.64      2.57        
C           114.41      -34.18      2.65        
O           113.6       -33.39      2.22        
O           118.58      -36.29      3.07        
C           113.36      -34.45      4.84        
C           119.17      -34.4       1.09        
H           119.65781   -33.84149   1.88888     
H           119.79      -35.23      0.84        
H           119.14      -33.7       0.23        
H           113.62      -34.91      5.84        
H           112.31371   -34.71714   4.69159     
H           113.5       -33.37      4.66        
N           114.28      -35.0       3.87        
C           116.33      -35.37      3.07        
C           115.45      -35.75      4.06        
C           116.03      -30.82      -0.86       
C           116.72      -31.67      -1.64       
S           115.72      -31.46      0.73        
H           117.47      -33.78      -1.56       
H           116.98      -31.58      -2.71       
C           116.98      -32.95      -1.02       
C           116.44      -32.98      0.22        
C           114.49      -27.3       -1.17       
C           115.37      -27.4       -2.22       
S           114.61      -28.57      -0.04       
H           116.64      -28.93      -2.95       
H           115.52      -26.71      -3.0        
C           115.94      -28.66      -2.22       
C           115.57      -29.51      -1.16       
C           112.25      -24.11      -1.08       
C           111.45      -25.23      -0.78       
S           113.85      -24.69      -1.43       
H           111.84      -27.4       -0.24       
H           110.4       -25.04      -0.57       
C           112.23      -26.44      -0.63       
C           113.53      -26.29      -1.06       
C           108.7       -20.84      -1.25       
C           110.08      -21.12      -1.28       
N           108.02      -22.09      -1.36       
C           108.99      -23.15      -1.37       
C           111.38      -20.47      -1.38       
O           111.8       -19.33      -1.55       
O           108.6       -24.29      -1.63       
C           113.77      -21.24      -1.2        
C           106.61      -22.4       -1.24       
H           106.40265   -22.85172   -0.26992    
H           106.5       -23.31      -1.89       
H           105.99      -21.57      -1.54       
H           114.39      -22.18      -1.32       
H           114.01911   -20.72043   -0.27475    
H           114.02      -20.62      -2.06       
N           112.32      -21.58      -1.26       
C           110.3       -22.5       -1.31       
C           111.67      -22.82      -1.28       
C           106.64      -17.38      -1.61       
C           107.96      -17.2       -1.95       
S           106.49      -19.03      -1.15       
H           109.75      -18.3       -2.05       
H           108.4       -16.25      -2.19       
C           108.72      -18.36      -1.78       
C           108.14      -19.55      -1.48       
C           103.0       -16.01      -1.6        
C           103.83      -14.98      -1.72       
S           103.91      -17.49      -1.63       
H           105.94      -14.57      -1.92       
H           103.49      -13.97      -1.69       
C           105.17      -15.35      -1.88       
C           105.42      -16.66      -1.7        
C           99.28       -16.46      -0.82       
C           99.48       -15.13      -1.11       
S           100.75      -17.31      -0.56       
H           101.12      -13.89      -1.83       
H           98.61       -14.49      -1.19       
C           100.82      -14.82      -1.36       
C           101.58      -15.95      -1.29       
H           46.18       29.36       32.93       
H           98.35       -16.9       -1.18       
