392

C           66.34       42.61       17.28       
C           65.48       41.57       17.47       
N           66.01       43.53       18.27       
C           65.18       42.93       19.28       
C           65.05       40.27       16.96       
O           65.4        39.6        16.03       
O           64.91       43.53       20.28       
C           63.55       38.37       17.83       
C           66.16       44.98       18.33       
H           65.25565    45.42115    17.91091    
H           66.98       45.39       17.79       
H           66.18       45.33       19.33       
H           62.53       38.33       18.06       
H           63.94267    37.67357    18.57088    
H           63.6        38.0        16.79       
N           64.07       39.76       17.91       
C           64.73       41.66       18.67       
C           63.88       40.66       18.92       
C           68.57       43.93       14.2        
C           67.73       42.94       13.81       
S           68.44       43.97       15.95       
H           66.23       41.56       14.67       
H           67.62       42.7        12.77       
C           66.99       42.36       14.84       
C           67.18       42.85       16.13       
C           70.39       46.21       11.55       
C           71.2        46.06       12.64       
S           68.87       45.33       11.83       
H           71.04       45.0        14.65       
H           72.16       46.52       12.7        
C           70.56       45.28       13.7        
C           69.34       44.88       13.46       
C           70.08       48.01       8.1         
C           71.32       47.54       8.2         
S           69.22       47.72       9.62        
H           72.59       46.47       9.67        
H           72.03       47.71       7.38        
C           71.62       46.81       9.41        
C           70.54       46.86       10.26       
C           70.09       50.64       3.96        
C           69.48       50.27       5.12        
N           71.35       50.1        3.98        
C           71.53       49.27       5.12        
C           68.28       50.31       5.89        
O           67.28       51.03       5.72        
O           72.59       48.77       5.35        
C           67.08       49.04       7.57        
C           72.41       50.81       3.36        
H           72.93111    51.45083    4.07125     
H           72.2        51.5        2.52        
H           73.11       50.14       2.89        
H           67.03       48.94       8.63        
H           66.67078    48.15335    7.08575     
H           66.47       49.87       7.39        
N           68.37       49.46       7.0         
C           70.28       49.28       5.87        
C           69.59       48.88       7.07        
C           68.98       52.86       0.87        
C           68.19       53.03       1.94        
S           70.04       51.54       1.25        
H           68.21       52.47       4.1         
H           67.39       53.78       1.98        
C           68.62       52.35       3.1         
C           69.62       51.52       2.94        
C           68.78       53.47       -2.89       
C           68.01       54.47       -2.26       
S           69.43       52.39       -1.72       
H           67.42       55.07       -0.22       
H           67.44       55.14       -2.88       
C           68.01       54.41       -0.79       
C           68.79       53.4        -0.42       
C           69.95       52.22       -6.39       
C           69.64       53.54       -6.49       
S           69.37       51.62       -4.85       
H           68.8        55.12       -5.24       
H           69.82       54.09       -7.45       
C           69.06       54.11       -5.37       
C           69.02       53.22       -4.32       
C           71.74       51.52       -10.64      
C           71.64       51.09       -9.41       
N           70.65       52.29       -10.86      
C           69.96       52.6        -9.64       
C           72.26       50.21       -8.46       
O           73.18       49.37       -8.46       
O           69.04       53.35       -9.51       
C           72.37       50.39       -5.91       
C           69.86       52.46       -12.05      
H           69.09241    51.69241    -12.14859   
H           70.46       52.57       -12.97      
H           69.47       53.48       -11.99      
H           71.75       50.46       -5.02       
H           73.27869    50.97715    -5.77719    
H           72.58       49.38       -6.01       
N           71.74       50.74       -7.17       
C           70.73       51.86       -8.7        
C           70.69       51.57       -7.42       
C           74.38       51.24       -13.47      
C           74.61       50.27       -12.54      
S           72.94       52.1        -13.1       
H           73.87       49.77       -10.58      
H           75.46       49.67       -12.54      
C           73.7        50.32       -11.44      
C           72.73       51.3        -11.58      
C           75.95       52.59       -16.79      
C           76.97       52.38       -15.85      
S           74.44       52.38       -16.0       
H           77.21       51.33       -13.9       
H           78.07       52.5        -16.03      
C           76.52       51.78       -14.63      
C           75.2        51.71       -14.55      
C           75.22       54.31       -20.17      
C           76.5        53.95       -20.17      
S           74.52       53.73       -18.73      
H           78.08       52.96       -18.91      
H           77.07       54.21       -21.0       
C           77.02       53.26       -19.01      
C           76.0        53.12       -18.11      
C           75.09       58.14       -23.16      
C           74.45       57.08       -22.58      
N           76.36       58.09       -22.65      
C           76.62       56.9        -21.95      
C           73.15       56.53       -22.5       
O           72.16       56.82       -23.04      
O           77.67       56.6        -21.4       
C           72.14       54.46       -21.34      
C           77.54       58.89       -22.86      
H           78.19527    58.35759    -23.5494    
H           78.01       59.11       -21.92      
H           77.26       59.9        -23.26      
H           71.87       54.58       -20.31      
H           72.33267    53.40721    -21.54643   
H           71.43       54.81       -22.0       
N           73.31       55.38       -21.57      
C           75.32       56.31       -21.73      
C           74.66       55.34       -21.06      
C           73.64       61.3        -24.97      
C           72.83       61.02       -23.89      
S           75.01       60.22       -25.04      
H           72.84       59.33       -22.48      
H           72.05       61.63       -23.53      
C           73.31       59.84       -23.26      
C           74.47       59.34       -23.68      
C           73.78       64.04       -27.79      
C           72.53       64.06       -27.23      
S           74.7        62.82       -26.99      
H           71.48       63.16       -25.46      
H           71.68       64.55       -27.76      
C           72.43       63.23       -26.04      
C           73.53       62.43       -25.81      
C           75.56       64.88       -31.12      
C           74.51       65.75       -31.04      
S           75.56       63.75       -29.81      
H           72.81       66.05       -29.78      
H           74.25       66.51       -31.74      
C           73.75       65.5        -29.87      
C           74.25       64.53       -29.05      
C           77.36       66.41       -35.22      
C           77.33       65.47       -34.24      
N           76.68       67.61       -34.72      
C           76.25       67.32       -33.41      
C           77.68       64.03       -34.04      
O           78.38       63.26       -34.72      
O           75.87       68.21       -32.66      
C           76.99       62.31       -32.45      
C           76.06       68.71       -35.54      
H           74.9781     68.61623    -35.63377   
H           76.47       68.68       -36.57      
H           76.33       69.67       -35.05      
H           76.0        61.99       -32.04      
H           77.86943    62.03341    -31.86844   
H           77.22       61.76       -33.35      
N           77.02       63.72       -32.82      
C           76.52       65.9        -33.14      
C           76.47       64.82       -32.24      
C           79.02       66.3        -38.81      
C           78.57       65.06       -38.46      
S           78.7        67.49       -37.53      
H           77.32       64.25       -36.76      
H           78.81       64.21       -39.04      
C           77.84       65.1        -37.23      
C           77.82       66.25       -36.62      
C           81.84       66.29       -41.55      
C           81.44       67.55       -41.44      
S           80.97       65.19       -40.49      
H           79.78       68.68       -40.34      
H           81.89       68.33       -42.01      
C           80.33       67.72       -40.6       
C           79.96       66.55       -39.94      
C           83.95       63.62       -43.34      
C           84.57       64.89       -43.57      
S           82.49       63.86       -42.51      
H           84.13       67.05       -43.15      
H           85.47       64.94       -44.2       
C           83.84       66.0        -43.01      
C           82.76       65.56       -42.31      
C           87.28       60.55       -45.24      
C           86.11       60.71       -44.61      
N           87.41       61.68       -45.94      
C           86.55       62.74       -45.49      
C           85.14       60.03       -43.79      
O           85.04       58.85       -43.52      
O           86.74       63.93       -45.85      
C           83.06       60.58       -42.52      
C           88.18       61.89       -47.13      
H           87.60358    62.15712    -48.01571   
H           88.63       60.93       -47.42      
H           88.99       62.61       -47.01      
H           82.28       61.31       -42.64      
H           83.25232    60.38056    -41.4658    
H           82.64       59.7        -42.98      
N           84.26       61.04       -43.28      
C           85.73       62.14       -44.54      
C           84.56       62.29       -43.74      
C           89.49       57.39       -45.84      
C           88.15       57.01       -45.65      
S           89.58       59.13       -45.75      
H           86.18       58.11       -45.42      
H           87.8        56.02       -45.49      
C           87.23       58.09       -45.64      
C           87.87       59.3        -45.64      
C           92.4        54.75       -45.29      
C           93.01       55.95       -45.58      
S           90.67       54.85       -45.19      
H           92.33       57.99       -46.13      
H           94.1        56.04       -45.72      
C           92.04       56.96       -45.79      
C           90.69       56.59       -45.65      
C           94.64       51.86       -44.04      
C           93.37       51.53       -43.75      
S           94.69       53.45       -44.73      
H           91.33       52.38       -44.07      
H           93.2        50.52       -43.35      
C           92.44       52.47       -44.24      
C           93.01       53.54       -44.84      
C           97.04       48.68       -41.47      
C           96.98       49.51       -42.52      
N           95.78       48.7        -40.86      
C           94.88       49.65       -41.59      
C           97.77       49.97       -43.71      
O           98.87       49.68       -44.17      
O           93.84       50.09       -41.1       
C           97.34       51.32       -45.65      
C           95.19       47.5        -40.21      
H           94.22384    47.27433    -40.66134   
H           95.14       47.81       -39.15      
H           95.83       46.67       -40.37      
H           97.1        52.36       -45.72      
H           96.82332    50.78292    -46.44542   
H           98.46       51.27       -45.76      
N           96.9        50.89       -44.36      
C           95.74       50.2        -42.62      
C           95.75       51.11       -43.64      
C           100.07      46.92       -39.77      
C           100.6       47.84       -40.66      
S           98.36       46.86       -39.85      
H           99.84       49.28       -42.14      
H           101.65      48.03       -40.74      
C           99.6        48.49       -41.39      
C           98.3        48.13       -40.96      
C           102.28      44.63       -37.59      
C           101.05      44.56       -37.04      
S           102.34      45.66       -39.0       
H           98.96       45.37       -37.58      
H           100.71      44.05       -36.14      
C           100.06      45.3        -37.82      
C           100.65      45.94       -38.86      
C           105.41      43.18       -35.71      
C           105.86      43.94       -36.7       
S           103.62      43.09       -35.76      
H           104.93      45.18       -38.34      
H           106.86      44.08       -36.9       
C           104.8       44.51       -37.48      
C           103.54      44.17       -37.04      
C           109.23      40.76       -34.02      
C           107.89      41.13       -33.85      
N           109.62      41.26       -35.2       
C           108.58      42.01       -35.87      
C           106.83      41.13       -32.88      
O           106.7       40.58       -31.8       
O           108.61      42.31       -37.05      
C           104.62      42.24       -32.56      
C           110.88      40.79       -35.81      
H           111.48867   41.63055    -36.14332   
H           110.63      40.19       -36.71      
H           111.46      40.13       -35.19      
H           103.69      42.08       -33.11      
H           104.56959   43.2265     -32.09915   
H           104.64      41.48       -31.75      
N           105.79      41.99       -33.46      
C           107.54      42.03       -34.91      
C           106.22      42.41       -34.78      
C           111.56      38.58       -31.72      
C           110.32      38.02       -31.7       
S           111.62      39.99       -32.71      
H           108.34      38.49       -32.65      
H           109.97      37.11       -31.19      
C           109.39      38.71       -32.58      
C           109.95      39.77       -33.2       
C           114.35      36.98       -29.55      
C           114.79      38.2        -29.91      
S           112.78      36.68       -30.16      
H           114.07      39.84       -31.27      
H           115.77      38.48       -29.7       
C           113.89      38.85       -30.79      
C           112.68      38.17       -30.98      
C           115.76      34.06       -27.28      
C           116.79      34.83       -27.73      
S           114.32      34.42       -28.23      
H           116.92      36.83       -28.6       
H           117.8       34.66       -27.4       
C           116.33      35.95       -28.45      
C           115.01      35.91       -28.81      
C           117.73      31.96       -23.39      
C           116.66      32.14       -24.26      
N           118.85      32.59       -23.94      
C           118.46      33.1        -25.25      
C           115.26      31.74       -24.36      
O           114.47      31.02       -23.69      
O           119.28      33.72       -25.94      
C           113.29      32.59       -25.56      
C           120.14      33.12       -23.36      
H           120.92063   32.38157    -23.54285   
H           120.41      34.1        -23.82      
H           120.06      33.36       -22.33      
H           112.95      32.48       -26.57      
H           112.95192   33.50354    -25.07086   
H           112.78      31.78       -25.03      
N           114.75      32.5        -25.51      
C           116.97      32.91       -25.4       
C           115.82      33.14       -26.13      
C           118.12      30.19       -19.95      
C           117.13      29.57       -20.63      
S           118.92      31.36       -20.97      
H           116.12      29.9        -22.55      
H           116.51      28.71       -20.22      
C           116.81      30.22       -21.9       
C           117.8       31.12       -22.23      
C           119.12      28.58       -16.64      
C           119.94      29.63       -16.79      
S           117.86      28.61       -17.79      
H           120.26      31.26       -18.27      
H           120.7       29.78       -15.99      
C           119.68      30.42       -17.94      
C           118.65      29.88       -18.68      
C           119.39      25.09       -14.81      
C           120.33      25.94       -14.28      
S           118.51      25.91       -16.09      
H           120.98      27.96       -14.53      
H           120.95      25.69       -13.47      
C           120.28      27.23       -14.84      
C           119.37      27.42       -15.79      
C           120.24      21.08       -12.18      
C           119.61      21.76       -13.26      
N           120.81      22.14       -11.49      
C           120.68      23.46       -12.08      
C           118.85      21.46       -14.47      
O           118.39      20.43       -14.91      
O           121.09      24.45       -11.5       
C           117.72      22.84       -16.21      
C           121.45      22.12       -10.13      
H           122.5175    22.33629    -10.17186   
H           121.38      21.24       -9.58       
H           120.93      22.77       -9.46       
H           118.2       23.5        -17.02      
H           116.6928    23.13252    -15.99231   
H           117.6       21.9        -16.74      
N           118.59      22.72       -15.05      
C           119.88      23.14       -13.29      
C           119.23      23.75       -14.36      
C           120.36      17.4        -10.94      
C           119.27      17.54       -11.78      
S           121.27      18.83       -10.86      
H           118.21      19.22       -12.71      
H           118.55      16.81       -11.84      
C           119.09      18.87       -12.25      
C           120.11      19.7        -11.8       
C           121.91      14.39       -8.89       
C           120.63      14.06       -9.19       
S           122.27      15.98       -9.5        
H           118.81      15.08       -10.16      
H           120.12      13.12       -8.96       
C           119.9       15.15       -9.86       
C           120.67      16.23       -10.16      
C           125.06      12.73       -7.28       
C           124.25      11.71       -7.69       
S           124.34      14.28       -7.58       
H           122.31      11.41       -8.7        
H           124.5       10.68       -7.53       
C           123.07      12.1        -8.3        
C           122.99      13.54       -8.41       
H           63.25       40.64       19.81       
H           125.8       12.61       -6.57       
