392

C           53.87       14.23       34.39       
C           52.51       14.58       34.22       
N           53.93       13.14       35.26       
C           52.63       12.65       35.51       
C           51.61       15.54       33.55       
O           51.69       16.47       32.88       
O           52.37       11.68       36.26       
C           49.17       15.73       33.6        
C           54.9        12.83       36.3        
H           54.70972    13.44311    37.1809     
H           55.95       13.02       36.02       
H           54.89       11.7        36.49       
H           48.36       15.48       34.26       
H           48.73526    15.35046    32.67531    
H           49.36       16.81       33.63       
N           50.37       15.05       33.99       
C           51.77       13.56       34.85       
C           50.45       13.8        34.62       
C           57.15       15.95       33.23       
C           56.09       16.78       32.97       
S           56.61       14.39       33.75       
H           53.91       16.82       33.31       
H           56.2        17.79       32.51       
C           54.88       16.29       33.34       
C           54.97       15.01       33.82       
C           60.75       17.42       32.33       
C           60.94       16.38       33.23       
S           59.06       17.8        32.15       
H           59.55       14.83       34.11       
H           61.88       15.97       33.51       
C           59.66       15.74       33.46       
C           58.55       16.33       32.93       
C           63.47       19.21       30.25       
C           63.41       19.82       31.5        
S           62.4        17.82       30.2        
H           62.33       19.54       33.34       
H           64.09       20.68       31.67       
C           62.43       19.23       32.37       
C           61.79       18.21       31.78       
C           65.63       22.76       27.65       
C           65.27       21.37       27.67       
N           65.17       23.34       28.87       
C           64.36       22.4        29.63       
C           65.4        20.04       27.08       
O           66.02       19.65       26.16       
O           63.83       22.79       30.66       
C           64.36       17.75       27.52       
C           65.98       24.28       29.7        
H           66.64551    23.69074    30.33085    
H           65.27       24.93       30.31       
H           66.58       25.05       29.22       
H           63.39       17.3        27.75       
H           65.16919    17.09254    27.83789    
H           64.29       17.86       26.44       
N           64.56       19.15       27.97       
C           64.56       21.14       28.93       
C           64.13       19.8        29.1        
C           67.23       25.07       24.94       
C           67.37       23.79       24.52       
S           66.42       25.09       26.47       
H           66.78       21.69       25.25       
H           67.78       23.47       23.61       
C           66.76       22.82       25.38       
C           66.36       23.38       26.56       
C           68.0        28.11       22.71       
C           68.06       28.54       24.03       
S           67.57       26.44       22.52       
H           67.77       27.6        25.9        
H           68.11       29.58       24.26       
C           67.79       27.46       24.88       
C           67.59       26.28       24.26       
C           68.46       29.46       19.1        
C           68.26       30.53       19.97       
S           68.5        28.01       20.0        
H           67.99       30.92       22.12       
H           68.34       31.57       19.59       
C           68.12       30.18       21.37       
C           68.25       28.85       21.49       
C           68.6        31.07       14.57       
C           68.61       29.98       15.45       
N           68.44       32.21       15.36       
C           68.15       31.82       16.7        
C           68.84       28.52       15.5        
O           69.19       27.76       14.67       
O           67.77       32.59       17.61       
C           68.89       26.78       17.13       
C           68.33       33.62       14.93       
H           67.28016    33.91281    14.91572    
H           68.88       33.94       14.03       
H           68.84       34.22       15.64       
H           68.08       26.59       17.82       
H           69.8414     26.4215     17.52297    
H           68.63       26.16       16.26       
N           68.83       28.22       16.88       
C           68.47       30.4        16.78       
C           68.56       29.39       17.65       
C           69.83       31.43       10.8        
C           70.24       30.18       11.27       
S           68.78       32.17       11.97       
H           70.09       29.06       13.06       
H           70.88       29.48       10.75       
C           69.73       29.92       12.59       
C           69.12       30.99       13.2        
C           71.36       32.4        7.37        
C           70.48       33.39       7.7         
S           71.39       31.22       8.53        
H           69.13       33.89       9.4         
H           70.28       34.25       6.95        
C           69.77       33.15       8.95        
C           70.22       32.01       9.56        
C           73.03       32.47       3.87        
C           73.37       31.3        4.51        
S           72.22       33.49       5.04        
H           72.85       30.2        6.27        
H           73.98       30.56       4.02        
C           72.82       31.18       5.76        
C           72.23       32.29       6.22        
C           74.35       31.78       -0.76       
C           74.2        32.65       0.29        
N           74.21       30.52       -0.22       
C           73.96       30.6        1.21        
C           74.25       34.01       0.69        
O           74.61       35.03       0.17        
O           73.63       29.76       1.92        
C           74.2        35.22       2.97        
C           74.09       29.21       -0.81       
H           74.86399    28.49442    -0.53253    
H           74.12       29.18       -1.95       
H           73.16       28.77       -0.5        
H           74.52       34.88       3.91        
H           73.33569    35.87177    3.09752     
H           74.93       35.85       2.46        
N           73.91       34.04       2.09        
C           73.86       31.99       1.49        
C           73.47       32.81       2.49        
C           74.66       32.38       -4.63       
C           74.96       33.5        -3.97       
S           74.16       31.17       -3.51       
H           75.31       34.19       -1.93       
H           75.26       34.48       -4.41       
C           75.0        33.38       -2.61       
C           74.53       32.17       -2.17       
C           75.34       32.4        -8.48       
C           74.91       31.14       -8.14       
S           75.22       33.44       -7.12       
H           74.37       30.07       -6.28       
H           74.92       30.36       -8.88       
C           74.66       31.01       -6.77       
C           74.79       32.17       -6.06       
C           77.0        32.7        -12.01      
C           77.32       33.8        -11.23      
S           75.96       31.68       -10.99      
H           76.83       34.74       -9.44       
H           77.92       34.59       -11.59      
C           76.64       33.9        -10.03      
C           75.92       32.83       -9.75       
C           80.31       32.87       -15.45      
C           79.14       32.33       -15.03      
N           80.76       33.76       -14.48      
C           79.82       33.88       -13.42      
C           78.1        31.37       -15.37      
O           77.88       30.54       -16.28      
O           79.99       34.61       -12.47      
C           76.02       30.57       -14.25      
C           82.14       34.19       -14.28      
H           82.58618    33.75101    -13.38764   
H           82.29       35.24       -14.05      
H           82.8        33.94       -15.21      
H           75.24       30.95       -13.56      
H           76.16072    29.51794    -14.00206   
H           75.65       30.63       -15.27      
N           77.24       31.4        -14.16      
C           78.83       32.84       -13.73      
C           77.68       32.36       -13.24      
C           82.23       31.79       -18.76      
C           80.91       31.63       -18.98      
S           82.53       32.42       -17.19      
H           78.97       31.88       -17.77      
H           80.5        31.08       -19.87      
C           80.1        31.99       -17.83      
C           80.84       32.51       -16.77      
C           84.66       30.29       -21.48      
C           85.36       31.12       -20.66      
S           83.04       30.28       -21.04      
H           84.95       32.47       -18.93      
H           86.45       31.26       -20.71      
C           84.58       31.77       -19.69      
C           83.28       31.42       -19.72      
C           86.48       27.88       -23.91      
C           85.15       28.02       -24.32      
S           86.85       29.02       -22.64      
H           83.34       29.01       -23.58      
H           84.76       27.61       -25.18      
C           84.42       28.93       -23.53      
C           85.14       29.49       -22.55      
C           87.39       23.53       -25.79      
C           87.88       24.65       -25.05      
N           86.11       23.87       -26.2       
C           85.71       25.14       -25.68      
C           89.04       25.16       -24.34      
O           90.22       24.77       -24.36      
O           84.54       25.52       -25.83      
C           89.63       27.29       -23.39      
C           85.37       23.34       -27.31      
H           85.53906    23.95987    -28.1905    
H           84.28       23.21       -27.02      
H           85.62       22.33       -27.48      
H           89.28       27.93       -22.63      
H           90.11873    27.9077     -24.14346   
H           90.39       26.69       -22.89      
N           88.61       26.52       -23.98      
C           86.87       25.67       -25.02      
C           87.31       26.71       -24.29      
C           89.25       20.12       -26.47      
C           89.77       20.66       -25.34      
S           87.97       21.08       -27.1       
H           89.59       22.56       -24.25      
H           90.65       20.21       -24.78      
C           89.14       21.91       -25.03      
C           88.11       22.26       -25.84      
C           90.74       16.71       -27.5       
C           90.25       17.36       -28.65      
S           90.38       17.61       -26.07      
H           89.33       19.27       -29.13      
H           90.42       17.04       -29.66      
C           89.59       18.55       -28.36      
C           89.57       18.83       -27.06      
C           93.21       13.66       -27.66      
C           92.62       13.7        -26.44      
S           92.72       15.04       -28.62      
H           91.01       14.85       -25.46      
H           92.83       12.98       -25.62      
C           91.59       14.64       -26.34      
C           91.61       15.54       -27.36      
C           96.96       10.67       -27.35      
C           95.98       11.17       -28.12      
N           96.74       10.98       -26.02      
C           95.65       12.01       -25.99      
C           95.5        11.3        -29.48      
O           95.93       10.84       -30.56      
O           95.19       12.43       -24.89      
C           93.56       12.48       -30.55      
C           96.71       9.97        -24.97      
H           95.7109     9.55658     -24.83219   
H           97.13       10.31       -24.03      
H           97.36       9.15        -25.16      
H           93.43       13.51       -30.78      
H           92.56381    12.04594    -30.46461   
H           94.07       11.97       -31.35      
N           94.44       12.28       -29.37      
C           95.09       12.03       -27.32      
C           94.2        12.72       -28.1       
C           100.4       8.82        -28.25      
C           99.49       8.49        -29.18      
S           99.59       9.76        -26.95      
H           97.34       8.89        -29.65      
H           99.65       7.93        -30.07      
C           98.17       9.08        -28.92      
C           98.06       9.79        -27.75      
C           104.26      8.2         -28.68      
C           104.01      8.65        -27.39      
S           102.77      7.72        -29.38      
H           102.33      9.33        -26.25      
H           104.77      8.95        -26.73      
C           102.67      8.95        -27.16      
C           101.84      8.62        -28.2       
C           107.83      6.82        -29.68      
C           107.07      6.71        -30.83      
S           106.99      7.79        -28.5       
H           104.97      7.11        -31.41      
H           107.44      6.22        -31.68      
C           105.7       7.24        -30.61      
C           105.47      7.75        -29.35      
C           111.91      4.43        -30.93      
C           111.25      5.26        -30.06      
N           111.04      4.2         -31.96      
C           109.63      4.6         -31.65      
C           111.41      6.06        -28.91      
O           112.3       6.25        -28.21      
O           108.69      4.42        -32.31      
C           110.05      7.59        -27.46      
C           111.32      3.77        -33.33      
H           110.75869   2.89685     -33.66263   
H           112.37      3.53        -33.49      
H           111.28      4.6         -33.97      
H           109.25      7.57        -26.83      
H           110.47126   8.58199     -27.62307   
H           110.85      7.24        -26.73      
N           110.1       6.66        -28.59      
C           109.84      5.35        -30.41      
C           109.11      6.24        -29.51      
C           115.53      3.1         -30.69      
C           115.49      4.38        -30.25      
S           114.04      2.6         -31.35      
H           114.01      5.89        -29.9       
H           116.2       4.77        -29.6       
C           114.25      4.96        -30.33      
C           113.33      4.14        -31.0       
C           117.84      0.05        -30.03      
C           118.71      1.06        -30.23      
S           116.22      0.54        -30.38      
H           118.56      3.3         -30.84      
H           119.81      0.95        -30.13      
C           118.04      2.36        -30.54      
C           116.66      2.21        -30.58      
C           117.59      -3.86       -29.48      
C           118.82      -3.49       -30.0       
S           116.79      -2.34       -29.28      
H           120.05      -1.7        -30.35      
H           119.6       -4.25       -30.26      
C           119.17      -2.13       -29.99      
C           118.08      -1.38       -29.79      
C           117.03      -8.65       -29.64      
C           116.55      -7.41       -29.28      
N           118.26      -8.38       -30.2       
C           118.68      -7.07       -30.07      
C           115.4       -6.75       -28.72      
O           114.4       -7.3        -28.3       
O           119.84      -6.73       -30.38      
C           114.53      -4.54       -28.44      
C           119.03      -9.17       -31.2       
H           118.60197   -9.03941    -32.1939    
H           120.07      -8.87       -31.38      
H           119.07      -10.21      -30.99      
H           114.68      -3.49       -28.83      
H           114.2201    -4.54       -27.39498   
H           113.73      -4.97       -29.0       
N           115.72      -5.36       -28.69      
C           117.54      -6.44       -29.51      
C           117.02      -5.14       -29.21      
C           115.62      -12.3       -29.84      
C           114.59      -11.43      -29.72      
S           117.15      -11.49      -29.72      
H           114.29      -9.29       -29.49      
H           113.57      -11.72      -29.73      
C           114.98      -10.08      -29.58      
C           116.35      -9.94       -29.69      
C           114.77      -16.01      -29.38      
C           116.13      -15.95      -29.64      
S           114.0       -14.41      -29.46      
H           117.62      -14.3       -30.06      
H           116.75      -16.86      -29.57      
C           116.58      -14.61      -29.83      
C           115.57      -13.69      -29.75      
C           112.39      -18.89      -28.16      
C           113.27      -19.4       -29.08      
S           112.73      -17.18      -27.9       
H           114.96      -18.62      -30.33      
H           113.08      -20.4       -29.43      
C           114.18      -18.42      -29.59      
C           114.03      -17.19      -29.03      
C           108.61      -21.88      -28.21      
C           109.42      -20.99      -27.57      
N           109.04      -21.8       -29.56      
C           110.23      -20.98      -29.71      
C           109.58      -20.38      -26.27      
O           109.0       -20.46      -25.27      
O           110.78      -20.79      -30.76      
C           111.27      -18.86      -25.23      
C           108.02      -21.76      -30.72      
H           107.95698   -20.81477   -31.25913   
H           107.04      -22.09      -30.34      
H           108.26      -22.59      -31.43      
H           111.35      -17.8       -25.4       
H           112.1923    -19.2635    -24.81208   
H           110.58      -18.89      -24.41      
N           110.7       -19.55      -26.41      
C           110.42      -20.4       -28.42      
C           111.23      -19.53      -27.7       
C           106.04      -24.75      -27.27      
C           106.19      -23.98      -26.22      
S           107.1       -24.21      -28.58      
H           107.33      -22.09      -25.68      
H           105.78      -24.21      -25.28      
C           107.01      -22.83      -26.43      
C           107.59      -22.79      -27.68      
C           104.41      -28.12      -28.37      
C           103.8       -27.71      -27.24      
S           105.6       -26.93      -28.89      
H           103.81      -26.04      -25.91      
H           102.95      -28.2       -26.85      
C           104.28      -26.44      -26.78      
C           105.38      -25.98      -27.46      
C           103.44      -31.49      -30.16      
C           103.98      -30.65      -31.08      
S           103.33      -30.67      -28.65      
H           104.64      -28.54      -31.19      
H           104.18      -30.9       -32.14      
C           104.25      -29.37      -30.56      
C           104.08      -29.21      -29.24      
H           49.62       13.35       35.15       
H           103.23      -32.55      -30.32      
