392

C           35.77       33.66       33.55       
C           35.07       32.88       32.73       
N           34.93       34.63       34.01       
C           33.64       34.38       33.61       
C           35.09       31.75       31.77       
O           36.02       31.13       31.32       
O           32.71       35.05       34.03       
C           33.26       30.7        30.33       
C           35.25       35.95       34.34       
H           35.39873    36.58952    33.46995    
H           36.15       35.89       34.86       
H           34.48       36.37       35.03       
H           33.22       31.21       29.35       
H           32.25043    30.34452    30.53618    
H           33.96       29.9        30.28       
N           33.73       31.63       31.32       
C           33.68       33.32       32.73       
C           32.83       32.53       31.94       
C           39.55       33.5        34.39       
C           39.34       32.84       33.26       
S           38.13       34.08       35.1        
H           37.68       32.6        31.84       
H           40.11       32.33       32.67       
C           38.03       32.92       32.85       
C           37.18       33.66       33.7        
C           43.18       33.66       35.97       
C           42.28       34.15       36.85       
S           42.34       33.12       34.56       
H           40.24       34.48       37.0        
H           42.53       34.63       37.75       
C           40.97       34.06       36.37       
C           40.8        33.49       35.18       
C           47.1        33.63       35.73       
C           46.75       33.34       37.03       
S           45.67       34.09       34.83       
H           44.9        32.83       38.06       
H           47.44       33.14       37.78       
C           45.35       33.22       37.18       
C           44.6        33.5        36.07       
C           51.6        35.11       36.31       
C           50.62       34.61       35.45       
N           50.95       35.59       37.46       
C           49.61       35.1        37.47       
C           50.39       34.07       34.12       
O           51.18       33.92       33.24       
O           48.9        35.36       38.42       
C           48.46       33.15       32.8        
C           51.45       36.56       38.49       
H           50.94643    37.51529    38.34189    
H           52.51       36.67       38.35       
H           51.33       36.23       39.51       
H           47.55       33.68       32.44       
H           48.31776    32.0761     32.9209     
H           49.16       33.23       32.01       
N           48.98       33.69       34.08       
C           49.37       34.53       36.1        
C           48.4        34.0        35.27       
C           55.46       35.33       35.61       
C           54.82       35.37       34.43       
S           54.34       35.21       36.93       
H           52.79       35.43       33.7        
H           55.25       35.41       33.41       
C           53.4        35.4        34.6        
C           52.93       35.37       35.88       
C           59.3        34.39       35.74       
C           58.96       34.94       36.88       
S           57.89       34.3        34.7        
H           57.23       35.75       37.9        
H           59.6        35.06       37.78       
C           57.62       35.42       36.97       
C           56.88       35.14       35.85       
C           62.26       32.0        34.97       
C           61.96       32.77       33.81       
S           60.99       32.3        36.13       
H           60.66       34.39       33.25       
H           62.4        32.59       32.87       
C           60.93       33.72       34.05       
C           60.44       33.68       35.3        
C           63.24       27.57       33.55       
C           63.51       28.6        34.45       
N           62.58       28.16       32.47       
C           62.45       29.6        32.66       
C           64.27       28.9        35.71       
O           64.96       28.31       36.55       
O           61.85       30.29       31.85       
C           64.39       30.87       37.17       
C           62.22       27.58       31.22       
H           62.88895    27.89723    30.42002    
H           61.2        27.77       30.97       
H           62.38       26.5        31.3        
H           63.62       30.92       37.89       
H           64.89348    31.82732    37.03527    
H           65.07       30.18       37.62       
N           63.94       30.32       35.93       
C           62.92       29.8        33.98       
C           63.0        30.78       34.97       
C           65.24       24.27       33.6        
C           63.94       23.96       33.28       
S           65.41       25.97       34.01       
H           62.11       25.03       32.96       
H           63.6        22.97       33.08       
C           63.11       25.07       33.21       
C           63.76       26.23       33.6        
C           68.09       21.65       33.24       
C           68.68       22.78       33.74       
S           66.41       21.86       32.82       
H           68.06       24.75       34.59       
H           69.67       22.84       34.12       
C           67.72       23.79       34.06       
C           66.44       23.43       33.57       
C           69.19       18.1        31.87       
C           69.95       18.39       32.95       
S           68.34       19.48       31.42       
H           70.03       19.82       34.72       
H           70.62       17.67       33.42       
C           69.62       19.6        33.72       
C           68.68       20.34       32.97       
C           71.85       14.74       29.78       
C           70.64       15.36       29.9        
N           72.72       15.23       30.73       
C           72.05       16.33       31.45       
C           69.29       15.35       29.33       
O           68.74       14.7        28.42       
O           72.65       17.16       32.12       
C           67.15       16.59       29.82       
C           73.85       14.57       31.43       
H           73.48798    14.24279    32.40467    
H           74.64       15.28       31.57       
H           74.18       13.64       30.91       
H           66.95       17.6        29.57       
H           66.58459    16.11271    30.62038    
H           67.02       16.2        28.83       
N           68.56       16.42       30.12       
C           70.72       16.36       30.9        
C           69.44       17.05       30.97       
C           73.13       11.62       27.7        
C           71.76       11.64       27.69       
S           73.74       13.0        28.55       
H           70.18       12.94       28.56       
H           71.13       10.89       27.25       
C           71.25       12.81       28.36       
C           72.14       13.56       29.0        
C           74.98       8.68        26.0        
C           75.89       9.71        26.1        
S           73.41       9.16        26.52       
H           75.89       11.74       26.9        
H           76.93       9.61        25.87       
C           75.31       10.83       26.65       
C           74.0        10.7        27.01       
C           75.66       5.51        23.71       
C           74.89       5.14        24.78       
S           76.04       7.2         23.89       
H           74.15       5.99        26.61       
H           74.52       4.17        24.97       
C           74.57       6.24        25.65       
C           75.13       7.42        25.36       
C           77.61       1.37        22.7        
C           77.45       2.66        22.37       
N           76.97       1.07        23.94       
C           76.22       2.23        24.3        
C           77.78       3.66        21.36       
O           78.4        3.49        20.26       
O           75.44       2.15        25.2        
C           76.73       5.79        20.89       
C           77.41       -0.01       24.99       
H           77.66762    0.39074     25.97038    
H           78.44       -0.3        24.65       
H           76.79       -0.88       25.0        
H           76.73       6.73        21.35       
H           75.77682    5.74021     20.36362    
H           77.56       5.7         20.19       
N           77.0        4.76        21.77       
C           76.57       3.25        23.34       
C           76.33       4.53        22.97       
C           79.65       -1.58       21.05       
C           80.29       -0.41       20.77       
S           78.15       -1.31       21.94       
H           79.92       1.77        21.19       
H           81.23       -0.44       20.2        
C           79.54       0.76        21.24       
C           78.45       0.42        22.03       
C           81.59       -4.91       20.22       
C           80.38       -5.29       20.67       
S           81.74       -3.18       20.2        
H           78.61       -4.27       21.54       
H           80.12       -6.37       20.78       
C           79.66       -4.15       21.11       
C           80.17       -2.93       20.85       
C           83.64       -7.62       18.5        
C           84.57       -6.64       18.88       
S           82.03       -7.27       19.08       
H           84.51       -4.84       20.05       
H           85.64       -6.71       18.66       
C           83.94       -5.6        19.65       
C           82.58       -5.73       19.72       
C           86.01       -10.32      15.29       
C           84.98       -10.18      16.16       
N           86.63       -9.1        15.28       
C           85.99       -8.14       16.13       
C           83.8        -10.86      16.66       
O           83.4        -11.96      16.49       
O           86.29       -6.96       16.14       
C           82.23       -10.42      18.49       
C           88.05       -8.9        15.06       
H           88.59508    -8.7812     15.99642    
H           88.16       -8.05       14.36       
H           88.44       -9.77       14.48       
H           81.44       -9.73       18.55       
H           82.61078    -10.58218   19.49837    
H           81.77       -11.3       18.06       
N           83.25       -9.95       17.62       
C           84.9        -8.89       16.69       
C           83.88       -8.69       17.55       
C           86.96       -13.26      12.89       
C           86.59       -13.81      14.1        
S           86.98       -11.57      13.03       
H           85.73       -13.12      16.01       
H           86.54       -14.85      14.24       
C           86.16       -12.86      15.05       
C           86.41       -11.54      14.68       
C           88.38       -14.21      9.4         
C           88.33       -15.38      10.15       
S           87.9        -12.8       10.36       
H           87.63       -15.97      12.17       
H           88.56       -16.43      9.79        
C           87.81       -15.11      11.48       
C           87.6        -13.81      11.74       
C           89.46       -12.91      5.88        
C           89.34       -14.23      5.74        
S           89.17       -12.39      7.53        
H           88.45       -15.87      7.01        
H           89.64       -14.78      4.86        
C           88.71       -14.85      6.9         
C           88.58       -13.99      7.96        
C           91.5        -12.17      1.53        
C           90.92       -11.67      2.64        
N           92.02       -13.44      1.87        
C           91.6        -13.78      3.2         
C           90.35       -10.44      3.23        
O           90.18       -9.3        2.84        
O           91.83       -14.82      3.74        
C           88.69       -10.09      5.03        
C           92.41       -14.48      0.96        
H           91.58832    -15.18229   0.81954     
H           93.37       -14.95      1.2         
H           92.64       -13.92      0.04        
H           88.69       -10.19      6.1         
H           87.70723    -10.1992    4.57137     
H           88.95       -9.06       4.91        
N           89.7        -10.89      4.44        
C           90.89       -12.66      3.75        
C           90.13       -12.17      4.84        
C           91.67       -10.52      -2.02       
C           91.61       -9.49       -1.1        
S           91.82       -12.03      -1.3        
H           91.71       -9.37       1.06        
H           91.45       -8.46       -1.46       
C           91.72       -10.03      0.22        
C           91.75       -11.39      0.35        
C           90.79       -9.28       -5.63       
C           90.97       -10.65      -5.69       
S           91.14       -8.72       -4.0        
H           91.36       -12.3       -4.26       
H           90.94       -11.17      -6.63       
C           91.22       -11.23      -4.4        
C           91.53       -10.33      -3.42       
C           90.34       -6.18       -7.87       
C           90.69       -7.22       -8.68       
S           90.16       -6.69       -6.24       
H           91.08       -9.44       -8.42       
H           90.76       -7.09       -9.72       
C           90.73       -8.49       -8.0        
C           90.51       -8.3        -6.66       
C           92.29       -2.4        -10.02      
C           91.35       -2.87       -9.12       
N           93.03       -3.51       -10.43      
C           92.57       -4.67       -9.79       
C           90.4        -2.43       -8.14       
O           90.03       -1.26       -7.89       
O           93.06       -5.81       -10.03      
C           88.63       -3.47       -6.86       
C           94.39       -3.49       -10.93      
H           95.09592    -3.76531    -10.14643   
H           94.72       -2.56       -11.25      
H           94.42       -4.04       -11.9       
H           88.55       -4.3        -6.14       
H           87.67773    -3.34303    -7.37493    
H           88.9        -2.68       -6.15       
N           89.78       -3.65       -7.72       
C           91.47       -4.26       -9.03       
C           90.5        -4.78       -8.17       
C           93.52       1.23        -11.05      
C           92.9        1.35        -9.83       
S           93.48       -0.37       -11.58      
H           92.11       -0.09       -8.27       
H           92.9        2.28        -9.29       
C           92.4        0.05        -9.33       
C           92.7        -0.98       -10.14      
C           95.14       3.76        -13.54      
C           94.74       4.47        -12.43      
S           94.91       2.06        -13.29      
H           93.71       4.09        -10.51      
H           94.73       5.55        -12.44      
C           94.21       3.65        -11.38      
C           94.14       2.31        -11.73      
C           96.55       4.64        -17.19      
C           96.99       5.58        -16.33      
S           95.51       3.53        -16.22      
H           96.89       6.15        -14.25      
H           97.71       6.36        -16.6       
C           96.54       5.43        -14.97      
C           95.79       4.29        -14.69      
C           98.93       5.67        -21.26      
C           98.0        4.97        -20.58      
N           99.4        6.56        -20.35      
C           98.75       6.49        -19.06      
C           97.16       3.82        -20.72      
O           96.9        3.16        -21.74      
O           98.82       7.32        -18.25      
C           95.25       2.89        -19.49      
C           100.71      7.12        -20.21      
H           101.34859   6.43228     -19.65562   
H           101.14      7.33        -21.15      
H           100.69      8.1         -19.74      
H           94.44       3.39        -18.92      
H           95.29951    1.822       -19.27781   
H           94.89       2.98        -20.51      
N           96.48       3.62        -19.47      
C           97.92       5.32        -19.17      
C           96.99       4.54        -18.54      
C           100.15      5.91        -25.11      
C           99.06       5.12        -25.01      
S           100.54      6.54        -23.56      
H           97.83       4.39        -23.32      
H           98.52       4.66        -25.79      
C           98.61       5.06        -23.65      
C           99.31       5.71        -22.68      
C           102.05      7.87        -27.76      
C           100.87      7.53        -28.4       
S           102.21      7.15        -26.17      
H           99.01       6.4         -27.81      
H           100.55      7.9         -29.39      
C           100.02      6.77        -27.56      
C           100.65      6.45        -26.31      
C           105.33      9.99        -27.92      
C           104.62      10.28       -29.03      
S           104.56      8.65        -27.1       
H           102.77      9.75        -30.06      
H           104.9       11.15       -29.6       
C           103.42      9.48        -29.21      
C           103.18      8.58        -28.18      
C           109.72      11.57       -29.07      
C           108.81      11.24       -28.14      
N           109.19      11.33       -30.29      
C           107.79      11.05       -30.15      
C           108.63      11.31       -26.71      
O           109.23      11.86       -25.79      
O           107.03      10.87       -31.12      
C           106.72      10.51       -25.26      
C           109.95      11.02       -31.5       
H           109.7619    10.01441    -31.87619   
H           110.93      11.1        -31.47      
H           109.9       11.72       -32.33      
H           106.2       9.52        -25.3       
H           106.13269   11.34497    -24.8779    
H           107.55      10.31       -24.58      
N           107.32      10.72       -26.56      
C           107.57      10.92       -28.75      
C           106.69      10.5        -27.75      
C           113.36      11.52       -27.79      
C           113.33      12.36       -28.83      
S           111.84      10.75       -27.44      
H           111.86      12.87       -30.45      
H           114.17      12.81       -29.38      
C           112.06      12.32       -29.48      
C           111.09      11.69       -28.74      
C           116.56      10.59       -25.89      
C           115.55      9.93        -25.25      
S           116.09      11.39       -27.33      
H           113.42      9.84        -25.61      
H           115.68      9.43        -24.29      
C           114.35      10.23       -25.85      
C           114.46      11.1        -26.94      
C           120.45      10.93       -25.62      
C           120.12      9.94        -24.74      
S           119.04      11.81       -26.12      
H           118.41      8.83        -24.32      
H           120.86      9.31        -24.27      
C           118.76      9.69        -24.85      
C           118.01      10.54       -25.58      
H           31.87       32.81       31.59       
H           121.51      11.26       -25.75      
