392

C           44.55       9.13        36.69       
C           43.42       9.57        36.19       
N           44.82       9.8         37.89       
C           43.82       10.83       38.09       
C           42.46       9.34        35.09       
O           42.38       8.49        34.19       
O           43.94       11.65       39.05       
C           40.33       10.47       34.4        
C           45.65       9.39        38.98       
H           45.10775    9.01404     39.8476     
H           46.34       10.19       39.31       
H           46.22       8.45        38.78       
H           40.37       11.35       33.72       
H           39.44002    10.559      35.02299    
H           40.27       9.52        33.77       
N           41.54       10.44       35.18       
C           42.94       10.7        36.92       
C           41.8        11.21       36.3        
C           47.02       6.54        35.34       
C           45.76       6.08        35.08       
S           46.98       8.02        36.22       
H           43.63       6.85        35.39       
H           45.54       5.26        34.43       
C           44.73       6.94        35.6        
C           45.3        7.95        36.3        
C           50.01       6.06        32.86       
C           50.42       6.45        34.09       
S           48.26       5.91        32.92       
H           49.64       6.71        36.16       
H           51.47       6.63        34.36       
C           49.44       6.5         35.14       
C           48.21       6.24        34.64       
C           51.67       5.49        29.42       
C           50.85       4.46        29.59       
S           51.67       6.55        30.83       
H           49.18       4.09        31.11       
H           50.76       3.73        28.83       
C           50.14       4.61        30.86       
C           50.63       5.59        31.7        
C           54.03       4.26        25.46       
C           53.54       5.27        26.31       
N           53.78       3.04        26.06       
C           53.15       3.26        27.32       
C           53.28       6.72        26.37       
O           53.43       7.62        25.66       
O           52.69       2.29        27.97       
C           52.46       8.29        28.16       
C           54.37       1.77        25.67       
H           54.99645    1.37397     26.46926    
H           54.91       1.78        24.73       
H           53.52       1.09        25.53       
H           52.9        8.4         29.18       
H           51.47344    8.64545     27.86258    
H           53.2        8.86        27.55       
N           52.76       6.95        27.68       
C           53.03       4.69        27.49       
C           52.49       5.72        28.23       
C           55.18       4.72        21.75       
C           55.26       5.9         22.49       
S           54.56       3.52        22.76       
H           55.09       6.6         24.49       
H           55.62       6.9         22.06       
C           55.02       5.74        23.83       
C           54.67       4.46        24.2        
C           56.86       4.26        18.26       
C           55.7        3.65        18.21       
S           57.04       5.11        19.77       
H           54.08       3.14        19.57       
H           55.36       3.09        17.33       
C           54.96       3.71        19.45       
C           55.55       4.5         20.41       
C           59.29       4.24        15.22       
C           59.99       4.61        16.32       
S           57.59       4.03        15.65       
H           59.57       4.99        18.47       
H           60.99       5.03        16.25       
C           59.21       4.67        17.51       
C           57.94       4.23        17.33       
C           62.15       5.44        11.66       
C           61.09       4.68        12.08       
N           62.74       6.06        12.8        
C           61.85       5.86        13.92       
C           60.07       3.79        11.65       
O           59.81       3.21        10.6        
O           62.03       6.53        14.93       
C           58.54       2.33        12.9        
C           64.14       6.42        12.95       
H           64.34556    7.49035     12.96418    
H           64.67       5.93        12.14       
H           64.47       5.99        13.93       
H           57.54       2.46        13.32       
H           59.0962     1.54147     13.40691    
H           58.3        2.02        11.85       
N           59.29       3.6         12.82       
C           60.82       4.96        13.45       
C           59.77       4.3         13.87       
C           63.73       5.99        8.05        
C           63.0        4.76        8.12        
S           63.72       6.72        9.61        
H           61.78       3.63        9.62        
H           62.86       4.09        7.3         
C           62.39       4.46        9.37        
C           62.75       5.44        10.29       
C           65.11       7.15        4.59        
C           65.75       7.82        5.55        
S           63.89       6.07        5.33        
H           66.05       7.75        7.81        
H           66.41       8.6         5.36        
C           65.5        7.37        6.88        
C           64.43       6.54        6.9         
C           65.2        8.33        0.82        
C           64.3        7.28        0.95        
S           66.02       8.54        2.34        
H           63.36       6.31        2.66        
H           63.72       6.83        0.13        
C           64.12       6.9         2.34        
C           65.01       7.4         3.17        
C           66.29       8.74        -3.8        
C           66.2        9.36        -2.57       
N           65.72       7.46        -3.73       
C           65.18       7.31        -2.42       
C           66.53       10.55       -1.81       
O           67.07       11.6        -2.12       
O           64.6        6.28        -2.15       
C           66.36       11.23       0.61        
C           65.86       6.29        -4.56       
H           66.43576    5.54365     -4.01268    
H           66.35       6.51        -5.44       
H           64.89       5.9         -4.91       
H           66.99       10.83       1.42        
H           65.43446    11.74496    0.86748     
H           67.02       11.99       0.11        
N           66.15       10.25       -0.47       
C           65.59       8.49        -1.63       
C           65.66       8.98        -0.37       
C           67.65       9.76        -7.44       
C           67.71       10.8        -6.64       
S           66.87       8.48        -6.62       
H           67.32       11.27       -4.47       
H           68.06       11.74       -6.97       
C           67.27       10.51       -5.3        
C           66.87       9.23        -5.08       
C           68.5        8.36        -10.92      
C           68.86       9.65        -10.96      
S           67.87       7.92        -9.42       
H           68.68       11.47       -9.64       
H           69.3        10.14       -11.89      
C           68.51       10.42       -9.78       
C           67.99       9.56        -8.82       
C           69.44       5.75        -13.7       
C           68.19       5.41        -13.26      
S           69.98       7.18        -12.86      
H           66.77       6.19        -11.75      
H           67.62       4.6         -13.65      
C           67.75       6.35        -12.23      
C           68.57       7.4         -11.89      
C           71.14       1.7         -15.82      
C           71.21       3.09        -15.69      
N           70.07       1.24        -15.0       
C           69.39       2.42        -14.33      
C           71.92       4.25        -16.06      
O           72.81       4.37        -16.9       
O           68.51       2.33        -13.5       
C           71.75       6.67        -15.79      
C           69.18       0.08        -15.18      
H           68.30767    0.33657     -15.7811    
H           68.77       -0.31       -14.22      
H           69.72       -0.75       -15.64      
H           71.91       7.34        -14.98      
H           71.2525     7.20304     -16.60022   
H           72.78       6.47        -16.01      
N           71.23       5.34        -15.42      
C           70.19       3.52        -14.73      
C           70.3        4.88        -14.53      
C           73.48       -1.01       -17.46      
C           73.95       0.21        -17.65      
S           71.96       -0.91       -16.55      
H           73.33       2.2         -17.4       
H           74.85       0.43        -18.24      
C           73.09       1.23        -17.26      
C           72.03       0.82        -16.53      
C           75.44       -4.15       -18.69      
C           74.51       -4.59       -17.76      
S           75.47       -2.4        -18.74      
H           72.74       -3.73       -16.69      
H           74.34       -5.65       -17.58      
C           73.62       -3.54       -17.32      
C           74.02       -2.33       -17.77      
C           77.5        -5.9        -21.44      
C           76.91       -6.91       -20.67      
S           77.31       -4.3        -20.74      
H           75.42       -7.0        -19.03      
H           77.0        -7.97       -20.9       
C           76.1        -6.36       -19.66      
C           76.25       -4.99       -19.53      
C           80.12       -8.2        -24.67      
C           79.46       -7.05       -24.3       
N           79.66       -9.24       -23.87      
C           78.84       -8.69       -22.84      
C           79.33       -5.66       -24.7       
O           79.61       -5.02       -25.71      
O           78.4        -9.4        -21.99      
C           77.73       -3.91       -23.91      
C           79.91       -10.62      -24.1       
H           80.3565     -11.12145   -23.24135   
H           80.59       -10.79      -25.03      
H           79.03       -11.16      -24.35      
H           77.83       -3.19       -23.08      
H           76.72919    -4.1003     -24.29764   
H           78.24       -3.41       -24.72      
N           78.46       -5.15       -23.64      
C           78.74       -7.29       -23.09      
C           78.27       -6.09       -22.61      
C           83.19       -8.41       -27.07      
C           82.22       -7.6        -27.66      
S           82.63       -9.04       -25.6       
H           80.25       -6.8        -27.11      
H           82.4        -6.79       -28.37      
C           81.05       -7.44       -26.81      
C           81.05       -8.33       -25.74      
C           86.68       -8.93       -28.7       
C           86.77       -9.16       -27.33      
S           85.01       -8.56       -29.07      
H           85.42       -9.03       -25.54      
H           87.71       -9.39       -26.83      
C           85.53       -8.97       -26.64      
C           84.52       -8.6        -27.44      
C           89.62       -10.06      -31.05      
C           88.72       -9.41       -31.82      
S           89.1        -10.08      -29.37      
H           86.73       -8.38       -31.48      
H           88.87       -9.18       -32.87      
C           87.57       -8.95       -31.07      
C           87.69       -9.19       -29.73      
C           93.14       -10.88      -34.15      
C           92.6        -11.15      -32.88      
N           92.2        -10.32      -34.98      
C           90.97       -10.15      -34.18      
C           92.91       -11.75      -31.61      
O           93.79       -12.51      -31.25      
O           89.96       -9.73       -34.81      
C           91.38       -12.56      -29.81      
C           92.64       -9.27       -35.95      
H           92.39552    -8.27724    -35.57216   
H           92.14       -9.48       -36.94      
H           93.69       -9.23       -36.1       
H           90.4        -12.89      -29.97      
H           91.53383    -12.23137   -28.78217   
H           91.99       -13.45      -30.02      
N           91.73       -11.56      -30.84      
C           91.28       -10.57      -32.77      
C           90.86       -10.63      -31.49      
C           96.47       -12.06      -35.85      
C           96.58       -12.03      -34.45      
S           94.85       -11.6       -36.24      
H           95.26       -11.37      -32.8       
H           97.54       -12.25      -33.99      
C           95.44       -11.52      -33.77      
C           94.45       -11.18      -34.61      
C           98.52       -12.52      -39.09      
C           98.96       -13.48      -38.2       
S           97.22       -11.62      -38.36      
H           98.52       -14.23      -36.2       
H           99.75       -14.09      -38.52      
C           98.29       -13.51      -36.95      
C           97.31       -12.54      -36.93      
C           100.54      -11.92      -42.31      
C           99.35       -11.28      -42.5       
S           100.63      -12.87      -40.82      
H           97.57       -10.84      -41.27      
H           99.11       -10.65      -43.37      
C           98.5        -11.35      -41.36      
C           99.04       -12.2       -40.34      
C           102.11      -11.04      -46.67      
C           102.4       -11.56      -45.44      
N           100.71      -11.05      -46.87      
C           100.06      -11.46      -45.64      
C           103.52      -11.83      -44.53      
O           104.74      -11.59      -44.67      
O           98.83       -11.58      -45.57      
C           103.59      -11.79      -42.02      
C           99.88       -10.6       -48.01      
H           99.13092    -11.34908   -48.26663   
H           100.45      -10.38      -48.96      
H           99.55       -9.52       -47.88      
H           103.22      -12.5       -41.35      
H           103.59716   -10.7736    -41.62632   
H           104.63      -12.05      -42.25      
N           102.88      -11.9       -43.25      
C           101.15      -11.65      -44.74      
C           101.49      -12.0       -43.42      
C           104.32      -8.94       -49.18      
C           105.1       -9.87       -48.55      
S           102.67      -9.18       -48.75      
H           104.79      -11.38      -47.02      
H           106.13      -9.92       -48.75      
C           104.37      -10.68      -47.65      
C           102.99      -10.47      -47.65      
C           106.01      -6.41       -51.7       
C           104.68      -6.24       -51.87      
S           106.38      -7.75       -50.64      
H           102.9       -7.2        -50.85      
H           104.16      -5.48       -52.49      
C           103.98      -7.13       -50.95      
C           104.74      -8.01       -50.19      
C           108.29      -3.48       -53.07      
C           108.97      -4.72       -53.22      
S           106.75      -3.92       -52.35      
H           108.59      -6.88       -52.95      
H           109.99      -4.8        -53.57      
C           108.28      -5.89       -52.8       
C           107.02      -5.6        -52.36      
C           111.52      0.15        -53.2       
C           110.2       -0.31       -53.18      
N           112.29      -1.07       -53.11      
C           111.45      -2.26       -53.07      
C           108.88      0.16        -53.29      
O           108.35      1.26        -53.34      
O           111.79      -3.44       -53.12      
C           106.57      -0.85       -53.42      
C           113.67      -1.29       -52.81      
H           113.85308   -1.13508    -51.74671   
H           113.94      -2.36       -53.06      
H           114.32      -0.61       -53.39      
H           106.02      -1.09       -52.46      
H           106.17785   -1.24215    -54.35837   
H           106.36      0.23        -53.53      
N           108.03      -1.0        -53.22      
C           110.13      -1.74       -53.06      
C           108.8       -2.14       -53.02      
C           113.09      3.75        -53.2       
C           111.85      3.89        -53.74      
S           113.53      2.08        -52.89      
H           110.25      2.47        -54.18      
H           111.49      4.76        -54.27      
C           111.19      2.61        -53.73      
C           111.96      1.5         -53.39      
C           116.35      5.93        -52.73      
C           115.37      6.79        -53.27      
S           115.71      4.3         -52.68      
H           113.27      6.64        -53.75      
H           115.58      7.81        -53.52      
C           114.13      6.13        -53.39      
C           114.12      4.78        -53.17      
C           120.05      6.28        -51.58      
C           119.83      6.95        -52.76      
S           118.56      5.45        -51.15      
H           118.21      7.36        -54.25      
H           120.65      7.4         -53.26      
C           118.52      6.96        -53.26      
C           117.71      6.17        -52.5       
C           124.81      6.26        -50.77      
C           123.48      5.96        -50.33      
N           124.64      6.63        -52.09      
C           123.28      6.64        -52.53      
C           122.72      5.45        -49.18      
O           122.97      5.08        -48.09      
O           122.96      6.67        -53.69      
C           120.51      6.35        -48.62      
C           125.52      7.48        -52.81      
H           125.0652    8.45161     -53.00294   
H           125.68      6.97        -53.75      
H           126.48      7.76        -52.41      
H           119.44      6.1         -48.76      
H           120.64696   7.43127     -48.60558   
H           120.75      5.94        -47.59      
N           121.4       5.79        -49.58      
C           122.57      6.22        -51.39      
C           121.31      6.01        -50.94      
C           128.44      6.08        -49.26      
C           127.53      5.85        -48.27      
S           127.61      6.1         -50.77      
H           125.35      5.88        -47.96      
H           127.81      5.81        -47.26      
C           126.17      5.86        -48.66      
C           126.03      6.12        -50.01      
C           131.97      6.59        -47.78      
C           132.06      5.69        -48.83      
S           130.36      7.16        -47.64      
H           130.77      4.8         -50.36      
H           133.0       5.27        -49.17      
C           130.86      5.43        -49.47      
C           129.85      6.11        -48.95      
C           135.1       7.41        -45.53      
C           133.98      7.92        -45.05      
S           134.63      6.63        -46.99      
H           131.83      8.09        -45.4       
H           133.99      8.4         -44.07      
C           132.79      7.73        -45.75      
C           132.92      6.97        -46.87      
H           41.45       12.21       36.37       
H           136.16      7.72        -45.45      
