392

C           51.36       29.2        31.46       
C           51.31       27.87       31.86       
N           50.28       29.91       31.99       
C           49.6        29.06       32.91       
C           51.92       26.61       31.7        
O           52.91       26.17       31.16       
O           48.67       29.43       33.55       
C           51.07       24.31       32.05       
C           49.8        31.3        31.81       
H           50.02635    31.95713    32.64967    
H           48.71       31.3        31.6        
H           50.24       31.78       30.98       
H           50.08       24.02       31.85       
H           51.53873    23.74333    32.85453    
H           51.73       24.16       31.17       
N           51.01       25.71       32.42       
C           50.11       27.74       32.67       
C           49.96       26.4        32.98       
C           53.74       30.77       28.73       
C           54.43       29.78       29.32       
S           52.24       31.02       29.49       
H           54.04       28.56       31.23       
H           55.52       29.48       29.12       
C           53.66       29.28       30.46       
C           52.42       29.76       30.63       
C           55.07       32.13       25.38       
C           54.46       33.17       25.99       
S           54.98       30.66       26.36       
H           53.22       33.39       27.86       
H           54.37       34.14       25.48       
C           53.78       32.77       27.18       
C           54.17       31.53       27.58       
C           57.1        30.9        22.28       
C           56.7        32.19       22.04       
S           56.49       30.4        23.79       
H           55.59       33.84       23.03       
H           57.08       32.82       21.2        
C           55.93       32.82       23.1        
C           55.68       31.95       24.1        
C           60.2        30.04       18.62       
C           59.46       29.58       19.73       
N           60.14       31.4        18.62       
C           59.11       31.8        19.59       
C           59.1        28.36       20.41       
O           59.42       27.21       20.27       
O           58.95       33.01       19.7        
C           57.86       27.81       22.52       
C           60.91       32.33       17.86       
H           60.22857    32.92104    17.2481     
H           61.62       31.87       17.15       
H           61.49       32.96       18.56       
H           56.93       28.0        23.1        
H           58.66187    27.6005     23.22796    
H           57.65       26.98       21.94       
N           58.28       28.79       21.51       
C           58.76       30.64       20.34       
C           58.02       30.19       21.44       
C           62.92       28.26       16.33       
C           62.77       27.58       17.48       
S           61.74       29.61       16.24       
H           61.61       27.64       19.29       
H           63.36       26.75       17.73       
C           61.8        28.1        18.34       
C           61.18       29.23       17.83       
C           65.3        27.02       13.48       
C           64.95       28.29       13.12       
S           64.75       26.61       15.05       
H           63.66       29.89       13.92       
H           65.23       28.81       12.21       
C           64.1        28.91       14.08       
C           63.83       28.1        15.17       
C           67.23       24.89       10.8        
C           67.43       24.22       11.96       
S           66.36       26.39       11.05       
H           66.8        24.41       14.06       
H           68.02       23.3        12.01       
C           66.7        24.83       13.01       
C           66.07       26.04       12.68       
C           70.37       22.63       7.86        
C           69.35       23.53       8.04        
N           70.69       22.15       9.14        
C           69.82       22.72       10.1        
C           68.51       24.45       7.28        
O           68.39       24.72       6.14        
O           69.98       22.32       11.28       
C           66.46       25.72       7.71        
C           72.05       21.77       9.59        
H           72.65716    22.57231    10.00923    
H           72.55       21.4        8.72        
H           72.02       20.82       10.16       
H           66.29       26.6        8.39        
H           65.55556    25.17733    7.43505     
H           66.81       26.24       6.81        
N           67.53       24.87       8.26        
C           68.9        23.57       9.41        
C           67.9        24.53       9.57        
C           72.32       21.58       4.61        
C           71.76       22.83       4.38        
S           71.96       21.01       6.23        
H           70.65       24.26       5.58        
H           71.9        23.3        3.41        
C           71.1        23.31       5.53        
C           71.03       22.43       6.59        
C           74.95       20.28       2.02        
C           74.72       19.2        2.78        
S           73.99       21.62       2.41        
H           73.57       18.71       4.54        
H           75.16       18.17       2.54        
C           73.77       19.47       3.8         
C           73.3        20.8        3.79        
C           77.03       20.11       -1.31       
C           77.22       21.33       -0.73       
S           76.03       19.16       -0.26       
H           76.7        22.42       1.06        
H           77.84       22.1        -1.19       
C           76.6        21.52       0.52        
C           75.87       20.39       0.96        
C           80.21       19.99       -4.96       
C           79.05       19.48       -4.39       
N           80.65       20.95       -4.05       
C           79.8        21.02       -2.91       
C           78.07       18.42       -4.52       
O           78.01       17.58       -5.45       
O           80.05       21.87       -2.03       
C           75.74       18.14       -3.69       
C           81.5        22.09       -4.3        
H           80.89016    22.98077    -4.45075    
H           82.24       22.03       -5.13       
H           82.17       22.23       -3.45       
H           75.04       18.83       -3.21       
H           75.49       17.12612    -3.3775     
H           75.65       18.26       -4.8        
N           77.12       18.59       -3.45       
C           78.75       20.12       -3.12       
C           77.61       19.57       -2.55       
C           82.28       19.4        -8.24       
C           81.06       18.84       -8.42       
S           82.42       19.98       -6.62       
H           79.14       18.49       -7.35       
H           80.71       18.35       -9.3        
C           80.19       18.94       -7.27       
C           80.74       19.72       -6.26       
C           84.79       20.02       -11.15      
C           85.28       20.55       -10.02      
S           83.23       19.26       -10.88      
H           84.6        20.93       -8.01       
H           86.32       21.02       -9.94       
C           84.39       20.44       -8.99       
C           83.28       19.64       -9.19       
C           85.84       19.32       -14.83      
C           86.81       20.18       -14.29      
S           84.64       18.96       -13.61      
H           87.35       20.96       -12.3       
H           87.58       20.63       -14.89      
C           86.61       20.44       -12.91      
C           85.43       19.88       -12.44      
C           86.89       19.28       -19.45      
C           86.18       18.76       -18.41      
N           87.43       20.45       -18.95      
C           87.07       20.73       -17.63      
C           85.31       17.61       -18.1       
O           84.79       16.72       -18.76      
O           87.44       21.7        -17.01      
C           84.66       16.54       -15.94      
C           88.61       21.18       -19.44      
H           89.45887    20.90893    -18.81227   
H           88.42       22.22       -19.33      
H           88.89       20.99       -20.51      
H           83.87       16.74       -15.23      
H           85.51939    16.00022    -15.54227   
H           83.96       15.91       -16.54      
N           85.05       17.73       -16.69      
C           86.33       19.55       -17.25      
C           85.6        18.96       -16.21      
C           87.53       17.82       -23.04      
C           87.42       16.84       -22.15      
S           87.43       19.4        -22.24      
H           86.93       16.56       -20.03      
H           87.45       15.8        -22.5       
C           87.15       17.26       -20.85      
C           87.18       18.6        -20.68      
C           88.78       18.13       -26.76      
C           89.03       16.83       -26.31      
S           88.18       19.06       -25.45      
H           88.61       15.65       -24.49      
H           89.43       16.06       -26.95      
C           88.6        16.62       -24.99      
C           88.05       17.76       -24.37      
C           90.79       19.68       -29.7       
C           89.46       20.15       -29.81      
S           90.81       18.31       -28.52      
H           87.45       19.86       -28.64      
H           89.16       20.9        -30.54      
C           88.58       19.6        -28.8       
C           89.18       18.63       -28.06      
C           92.94       21.66       -33.62      
C           93.03       21.12       -32.38      
N           91.57       21.92       -33.9       
C           90.79       21.42       -32.75      
C           93.99       20.65       -31.4       
O           95.23       20.66       -31.32      
O           89.61       21.59       -32.65      
C           93.84       19.56       -29.23      
C           90.93       22.65       -35.05      
H           90.15583    23.35718    -34.75224   
H           90.51       21.93       -35.67      
H           91.6        23.24       -35.72      
H           93.35       18.71       -28.79      
H           94.06432    20.34513    -28.50796   
H           94.8        19.1        -29.58      
N           93.16       20.08       -30.39      
C           91.75       20.87       -31.79      
C           91.8        20.11       -30.62      
C           95.53       22.5        -36.46      
C           96.25       22.21       -35.32      
S           93.82       22.24       -36.15      
H           95.82       21.86       -33.24      
H           97.35       22.1        -35.25      
C           95.39       21.91       -34.19      
C           94.04       21.99       -34.46      
C           97.23       22.68       -40.01      
C           96.03       23.24       -40.08      
S           97.53       22.23       -38.3       
H           94.37       23.8        -38.76      
H           95.68       23.53       -41.1       
C           95.32       23.32       -38.85      
C           95.97       22.78       -37.78      
C           99.86       22.12       -42.74      
C           100.08      21.22       -41.73      
S           98.64       23.22       -42.3       
H           98.91       20.38       -40.06      
H           100.99      20.61       -41.58      
C           98.98       21.14       -40.83      
C           98.22       22.23       -40.96      
C           104.1       21.78       -44.7       
C           102.83      22.23       -44.79      
N           104.36      21.53       -43.32      
C           103.16      21.61       -42.57      
C           101.8       22.8        -45.71      
O           101.88      22.94       -46.89      
O           103.16      21.54       -41.35      
C           99.32       22.94       -45.73      
C           105.63      21.59       -42.5       
H           105.8947    22.60587    -42.20668   
H           106.37      21.06       -43.06      
H           105.64      20.85       -41.74      
H           98.75       23.62       -45.12      
H           98.74666    22.04107    -45.9565    
H           99.61       23.42       -46.65      
N           100.57      22.74       -45.01      
C           102.18      22.05       -43.55      
C           100.83      22.32       -43.72      
C           107.09      21.37       -47.26      
C           106.34      22.43       -47.63      
S           106.48      20.76       -45.76      
H           104.44      23.39       -47.1       
H           106.59      22.96       -48.48      
C           105.21      22.69       -46.79      
C           105.13      21.88       -45.68      
C           110.36      19.6        -48.43      
C           110.25      20.83       -49.05      
S           108.92      19.38       -47.53      
H           108.9       22.55       -49.15      
H           111.06      21.3        -49.58      
C           109.02      21.54       -48.75      
C           108.26      20.9        -47.87      
C           113.02      16.85       -48.08      
C           113.72      17.92       -48.61      
S           111.38      17.26       -47.65      
H           113.15      20.06       -49.16      
H           114.81      17.91       -48.88      
C           112.88      19.06       -48.78      
C           111.55      18.81       -48.37      
C           116.68      13.92       -46.81      
C           115.33      14.16       -47.06      
N           117.26      15.08       -47.27      
C           116.35      16.22       -47.5       
C           114.05      13.48       -46.97      
O           113.73      12.36       -46.52      
O           116.73      17.32       -47.81      
C           111.61      14.0        -47.52      
C           118.67      15.51       -47.05      
H           119.08196   15.5615     -48.05784   
H           119.2       14.81       -46.47      
H           118.78      16.45       -46.54      
H           111.18      14.49       -48.42      
H           111.00626   14.09944    -46.61794   
H           111.64      12.97       -47.77      
N           113.07      14.41       -47.38      
C           115.05      15.5        -47.42      
C           113.69      15.65       -47.66      
C           118.66      10.68       -45.73      
C           117.47      10.31       -46.31      
S           118.76      12.41       -45.63      
H           115.73      11.39       -47.3       
H           117.19      9.23        -46.5       
C           116.67      11.43       -46.73      
C           117.3       12.65       -46.53      
C           121.48      8.18        -44.81      
C           121.8       9.42        -44.35      
S           119.87      8.17        -45.45      
H           121.11      11.49       -44.67      
H           122.79      9.63        -43.97      
C           120.9       10.43       -44.66      
C           119.75      9.91        -45.15      
C           123.58      4.9         -45.35      
C           124.03      5.48        -44.22      
S           122.34      5.98        -46.09      
H           123.31      6.99        -42.77      
H           124.78      5.05        -43.59      
C           123.17      6.53        -43.74      
C           122.31      6.97        -44.71      
C           127.13      1.99        -46.63      
C           125.83      2.41        -46.77      
N           127.71      2.85        -45.71      
C           126.75      3.71        -45.09      
C           124.62      2.02        -47.43      
O           124.41      1.13        -48.2       
O           127.1       4.44        -44.21      
C           122.33      2.9         -47.54      
C           129.05      3.3         -45.77      
H           129.26995   3.89388     -46.65715   
H           129.36      3.87        -44.84      
H           129.75      2.45        -45.65      
H           122.03      3.86        -47.94      
H           121.57326   2.5901      -46.8193    
H           122.41      2.13        -48.34      
N           123.64      3.0         -46.97      
C           125.55      3.46        -45.85      
C           124.25      3.85        -46.06      
C           129.18      -1.36       -47.28      
C           127.98      -1.44       -47.91      
S           129.37      0.24        -46.68      
H           126.19      -0.18       -48.09      
H           127.7       -2.31       -48.51      
C           127.17      -0.25       -47.79      
C           127.81      0.8         -47.1       
C           131.78      -4.25       -48.04      
C           132.25      -3.6        -46.95      
S           130.37      -3.52       -48.64      
H           131.66      -1.89       -45.72      
H           133.07      -4.0        -46.42      
C           131.36      -2.52       -46.51      
C           130.22      -2.33       -47.34      
C           134.01      -6.64       -50.13      
C           132.67      -6.87       -50.48      
S           134.06      -5.57       -48.79      
H           130.61      -6.03       -49.88      
H           132.41      -7.67       -51.16      
C           131.7       -6.07       -49.79      
C           132.36      -5.34       -48.83      
C           136.32      -9.12       -53.59      
C           136.34      -8.37       -52.42      
N           134.98      -8.96       -54.06      
C           134.13      -8.32       -53.07      
C           137.3       -7.92       -51.41      
O           138.48      -8.1        -51.24      
O           132.94      -8.19       -53.22      
C           137.28      -6.34       -49.51      
C           134.43      -8.92       -55.43      
H           134.2559    -7.9044     -55.78546   
H           133.5       -9.55       -55.44      
H           135.06      -9.35       -56.11      
H           136.68      -6.46       -48.58      
H           137.5101    -5.30804    -49.77496   
H           138.2       -6.77       -49.26      
N           136.48      -7.14       -50.52      
C           135.07      -7.88       -52.05      
C           135.13      -7.17       -50.86      
C           139.59      -9.37       -55.68      
C           138.72      -10.28      -56.11      
S           138.94      -8.44       -54.38      
H           136.67      -10.96      -55.58      
H           139.01      -11.07      -56.79      
C           137.48      -10.29      -55.42      
C           137.5       -9.45       -54.31      
C           142.88      -7.53       -56.96      
C           142.35      -8.23       -58.01      
S           141.93      -7.74       -55.53      
H           140.63      -9.58       -58.2       
H           142.78      -8.21       -59.02      
C           141.22      -9.0        -57.58      
C           140.82      -8.86       -56.26      
C           146.19      -5.6        -57.35      
C           145.84      -5.46       -56.07      
S           145.04      -6.49       -58.26      
H           144.2       -6.23       -54.78      
H           146.54      -4.91       -55.37      
C           144.6       -6.11       -55.8       
C           144.01      -6.62       -56.9       
H           49.24       25.95       33.7        
H           147.21      -5.31       -57.76      
