392

C           49.5        31.79       27.35       
C           49.38       31.69       25.92       
N           48.73       32.95       27.72       
C           48.2        33.67       26.56       
C           49.79       30.97       24.73       
O           50.28       29.91       24.5        
O           47.47       34.64       26.65       
C           49.45       31.29       22.25       
C           48.76       33.53       29.06       
H           49.36775    34.43438    29.08894    
H           49.2        32.86       29.84       
H           47.75       33.64       29.4        
H           49.65       32.14       21.58       
H           48.59683    30.74896    21.84076    
H           50.43       30.76       22.21       
N           49.27       31.73       23.66       
C           48.67       32.84       25.45       
C           48.61       32.83       24.06       
C           51.47       29.48       29.7        
C           51.08       28.73       28.67       
S           50.88       31.1        29.69       
H           50.02       29.2        26.73       
H           51.4        27.72       28.49       
C           50.27       29.52       27.74       
C           50.1        30.78       28.19       
C           53.77       28.59       32.76       
C           54.37       28.16       31.68       
S           52.24       29.37       32.38       
H           53.85       27.97       29.53       
H           55.35       27.69       31.67       
C           53.58       28.38       30.51       
C           52.38       29.03       30.71       
C           55.59       28.32       36.21       
C           54.87       29.52       36.19       
S           55.53       27.72       34.56       
H           53.29       30.53       34.86       
H           54.88       30.2        36.97       
C           54.09       29.79       35.0        
C           54.35       28.88       34.08       
C           58.33       28.43       40.2        
C           57.74       27.68       39.26       
N           58.21       29.77       39.74       
C           57.29       29.87       38.58       
C           57.39       26.32       38.88       
O           57.54       25.22       39.32       
O           56.94       30.93       38.01       
C           56.08       25.32       37.01       
C           58.36       30.98       40.55       
H           57.52255    31.08556    41.23966    
H           58.6        31.83       39.96       
H           59.22       30.82       41.21       
H           56.21       25.28       35.94       
H           55.08689    25.006      37.3313     
H           56.64       24.52       37.31       
N           56.59       26.5        37.69       
C           57.09       28.48       38.26       
C           56.47       27.8        37.26       
C           60.02       27.33       43.48       
C           58.96       26.47       43.18       
S           60.13       28.57       42.32       
H           57.44       26.42       41.55       
H           58.65       25.67       43.76       
C           58.28       26.85       42.01       
C           58.71       27.98       41.49       
C           62.05       26.49       46.83       
C           62.23       27.82       46.53       
S           60.94       25.86       45.6        
H           61.62       29.34       45.01       
H           62.8        28.39       47.19       
C           61.59       28.31       45.34       
C           60.77       27.35       44.71       
C           63.52       25.37       50.26       
C           62.71       24.4        49.76       
S           63.55       26.66       49.15       
H           61.35       23.99       48.09       
H           62.7        23.47       50.31       
C           62.05       24.66       48.56       
C           62.44       25.87       48.02       
C           64.87       23.87       54.67       
C           64.84       24.84       53.71       
N           63.99       22.82       54.25       
C           63.42       23.15       52.99       
C           65.36       26.18       53.42       
O           66.23       26.83       53.98       
O           62.71       22.39       52.33       
C           65.31       27.69       51.51       
C           63.31       21.79       55.08       
H           62.30013    22.10341    55.34466    
H           63.83       21.73       56.02       
H           63.27       20.77       54.59       
H           64.59       28.19       50.98       
H           66.17935    27.57177    50.8632     
H           65.63       28.27       52.33       
N           64.9        26.45       52.11       
C           63.96       24.47       52.62       
C           64.06       25.44       51.67       
C           66.58       23.97       58.17       
C           66.17       25.21       57.81       
S           66.08       22.71       57.01       
H           65.18       26.0        56.01       
H           66.29       26.12       58.3        
C           65.57       25.18       56.54       
C           65.43       23.93       55.97       
C           68.45       23.81       61.58       
C           68.38       22.57       61.1        
S           67.7        24.91       60.41       
H           67.32       21.49       59.47       
H           68.91       21.78       61.6        
C           67.57       22.41       59.93       
C           67.21       23.61       59.43       
C           70.72       24.84       64.61       
C           69.68       25.75       64.45       
S           70.65       23.66       63.36       
H           67.83       25.99       63.22       
H           69.62       26.63       65.11       
C           68.79       25.47       63.39       
C           69.17       24.33       62.69       
C           74.19       27.23       66.83       
C           73.53       26.06       66.6        
N           73.38       28.24       66.31       
C           72.38       27.61       65.45       
C           73.63       24.61       66.81       
O           74.46       23.93       67.42       
O           71.72       28.17       64.55       
C           72.09       22.63       66.21       
C           73.06       29.55       66.8        
H           72.04672    29.67482    67.18182    
H           73.34       30.35       66.01       
H           73.72       29.8        67.65       
H           71.92       22.11       65.28       
H           71.19325    22.57261    66.82696    
H           72.84       22.05       66.68       
N           72.54       24.0        66.01       
C           72.42       26.25       65.76       
C           71.86       25.04       65.37       
C           77.12       28.33       69.22       
C           76.64       27.12       69.6        
S           76.18       28.95       67.86       
H           75.25       25.67       68.9        
H           77.03       26.57       70.52       
C           75.66       26.61       68.7        
C           75.27       27.49       67.77       
C           79.86       30.43       71.14       
C           78.94       31.33       70.53       
S           79.33       28.8        70.85       
H           77.16       31.2        69.1        
H           79.21       32.4        70.51       
C           77.94       30.69       69.74       
C           77.99       29.31       69.83       
C           83.18       31.82       72.89       
C           82.84       30.58       73.42       
S           82.01       32.12       71.61       
H           81.23       28.99       73.11       
H           83.39       30.1        74.22       
C           81.65       29.95       72.83       
C           81.11       30.7        71.81       
C           87.61       32.43       74.69       
C           86.62       32.86       73.87       
N           87.16       31.3        75.3        
C           85.78       31.13       75.05       
C           86.31       33.9        72.85       
O           86.96       34.77       72.32       
O           85.15       30.35       75.73       
C           84.33       34.43       71.47       
C           88.01       30.1        75.39       
H           87.9524     29.59602    74.42523    
H           87.68       29.4        76.16       
H           89.01       30.42       75.57       
H           83.24       34.49       71.7        
H           84.49858    34.14903    70.43042    
H           84.64       35.46       71.61       
N           84.92       33.62       72.47       
C           85.47       32.06       73.98       
C           84.42       32.54       73.17       
C           91.32       33.61       75.31       
C           90.85       34.08       74.16       
S           90.04       32.75       76.11       
H           88.96       34.11       73.0        
H           91.42       34.74       73.59       
C           89.47       33.82       73.88       
C           88.9        33.0        74.84       
C           95.02       34.46       76.36       
C           94.28       33.9        77.41       
S           93.88       34.49       75.03       
H           92.24       33.2        78.0        
H           94.67       33.8        78.41       
C           92.91       33.62       77.23       
C           92.54       33.95       75.98       
C           98.37       36.2        75.5        
C           98.44       35.62       76.75       
S           96.78       35.91       74.88       
H           97.26       34.2        77.99       
H           99.3        35.77       77.3        
C           97.33       34.82       77.11       
C           96.36       34.95       76.22       
C           102.56      38.53       75.19       
C           101.41      38.01       74.61       
N           102.52      38.08       76.47       
C           101.33      37.32       76.7        
C           100.81      38.14       73.3        
O           101.2       38.62       72.25       
O           101.09      37.07       77.88       
C           98.56       37.18       72.4        
C           103.66      37.46       77.13       
H           103.81056   36.42757    76.81454    
H           103.71      37.51       78.24       
H           104.56      38.06       77.01       
H           97.49       37.01       72.66       
H           98.95446    36.46857    71.67448    
H           98.63       38.1        71.87       
N           99.53       37.37       73.52       
C           100.57      37.32       75.48       
C           99.44       36.93       74.87       
C           105.4       40.01       72.88       
C           105.35      40.71       74.07       
S           104.33      38.64       72.98       
H           104.01      40.71       75.88       
H           105.92      41.65       74.13       
C           104.31      40.29       74.93       
C           103.63      39.22       74.44       
C           107.24      41.03       69.47       
C           107.13      39.67       69.52       
S           106.63      41.73       70.96       
H           106.15      38.15       70.9        
H           107.42      39.06       68.71       
C           106.47      39.21       70.68       
C           106.16      40.16       71.58       
C           109.66      43.12       67.07       
C           108.66      43.91       67.54       
S           109.32      41.48       67.66       
H           106.82      43.7        68.94       
H           108.66      44.95       67.4        
C           107.64      43.22       68.33       
C           107.89      41.92       68.55       
C           111.43      46.0        63.8        
C           111.74      45.01       64.68       
N           110.07      46.33       63.89       
C           109.41      45.54       64.89       
C           112.8       44.23       65.35       
O           113.97      44.23       65.4        
O           108.19      45.44       64.96       
C           112.67      42.32       66.93       
C           109.38      47.6        63.7        
H           109.12724   48.0333     64.66771    
H           108.43      47.51       63.14       
H           109.97      48.34       63.12       
H           112.0       41.49       67.09       
H           113.05629   42.71357    67.8702     
H           113.48      41.95       66.26       
N           112.04      43.4        66.22       
C           110.49      44.63       65.24       
C           110.68      43.61       66.16       
C           113.37      47.52       60.77       
C           114.28      46.94       61.61       
S           111.76      47.35       61.34       
H           114.28      45.88       63.58       
H           115.34      46.91       61.41       
C           113.7       46.4        62.81       
C           112.34      46.64       62.86       
C           114.4       48.03       57.03       
C           113.61      49.07       57.46       
S           114.61      46.89       58.3        
H           112.56      49.73       59.16       
H           113.39      49.89       56.82       
C           113.25      49.01       58.76       
C           113.57      47.86       59.38       
C           115.06      47.69       53.2        
C           115.88      46.81       53.86       
S           114.42      48.81       54.35       
H           116.2       46.2        56.07       
H           116.42      46.07       53.39       
C           115.71      46.82       55.28       
C           114.8       47.78       55.7        
C           116.36      47.4        48.64       
C           115.5       47.95       49.54       
N           117.44      46.85       49.34       
C           117.15      46.82       50.72       
C           114.23      48.71       49.76       
O           113.51      49.42       49.11       
O           118.01      46.41       51.49       
C           112.52      48.75       51.65       
C           118.58      46.08       48.87       
H           118.49125   45.02179    49.11578    
H           119.51      46.58       49.22       
H           118.61      46.33       47.8        
H           112.53      49.45       52.54       
H           111.99243   47.82851    51.8962     
H           111.87      49.24       50.95       
N           113.89      48.53       51.14       
C           115.88      47.53       50.87       
C           114.99      47.94       51.81       
C           115.92      47.22       44.66       
C           115.21      48.2        45.2        
S           116.92      46.56       45.92       
H           114.74      49.0        47.24       
H           114.52      48.84       44.67       
C           115.29      48.31       46.63       
C           116.25      47.51       47.2        
C           115.43      46.76       40.77       
C           116.18      45.7        41.28       
S           115.27      47.95       42.04       
H           117.08      45.07       43.06       
H           116.52      44.94       40.62       
C           116.4       45.74       42.64       
C           115.84      46.81       43.23       
C           113.84      48.13       37.46       
C           114.25      46.92       37.19       
S           114.05      48.55       39.16       
H           115.13      45.22       38.28       
H           114.12      46.41       36.2        
C           114.85      46.28       38.31       
C           114.91      47.06       39.47       
C           113.36      49.98       33.05       
C           112.99      50.0        34.41       
N           114.51      49.26       32.93       
C           114.62      48.46       34.15       
C           112.2       50.75       35.39       
O           111.36      51.61       35.22       
O           115.4       47.55       34.24       
C           111.68      50.42       37.79       
C           115.67      49.29       31.99       
H           116.31812   50.16136    32.08362    
H           116.25      48.45       32.1        
H           115.21      49.19       30.95       
H           112.34      50.57       38.67       
H           110.92023   49.65306    37.94052    
H           111.25      51.36       37.46       
N           112.56      50.14       36.65       
C           113.74      49.03       35.1        
C           113.37      49.03       36.43       
C           111.86      51.58       29.74       
C           111.05      51.76       30.8        
S           113.22      50.76       30.28       
H           110.89      51.28       33.01       
H           109.98      52.14       30.71       
C           111.51      51.35       32.05       
C           112.73      50.7        31.95       
C           110.37      51.99       26.11       
C           111.75      51.76       26.05       
S           109.91      51.68       27.75       
H           113.49      51.57       27.35       
H           112.32      51.82       25.14       
C           112.42      51.59       27.24       
C           111.58      51.68       28.32       
C           108.28      53.01       22.94       
C           107.44      52.54       23.92       
S           109.89      52.62       23.44       
H           107.6       51.89       26.09       
H           106.39      52.51       23.82       
C           108.1       52.13       25.15       
C           109.46      52.2        25.02       
C           105.8       53.4        18.84       
C           106.85      53.76       19.59       
N           104.89      52.68       19.63       
C           105.42      52.52       20.95       
C           108.13      54.48       19.44       
O           108.58      55.24       18.56       
O           104.69      52.2        21.92       
C           109.72      55.08       21.19       
C           103.85      51.75       19.11       
H           104.14817   50.70988    19.24175    
H           103.71      51.84       18.05       
H           102.89      52.0        19.57       
H           110.28      54.62       22.01       
H           109.37669   56.07418    21.47609    
H           110.5       55.21       20.38       
N           108.68      54.2        20.76       
C           106.78      53.08       20.86       
C           107.89      53.38       21.59       
C           104.88      54.59       15.33       
C           106.2       54.67       15.44       
S           104.1       54.11       16.78       
H           107.64      53.78       16.86       
H           106.92      54.93       14.6        
C           106.62      54.08       16.67       
C           105.62      53.7        17.46       
C           102.34      54.92       12.34       
C           103.27      55.86       12.15       
S           102.67      53.91       13.73       
H           105.04      56.65       13.08       
H           103.26      56.41       11.25       
C           104.26      55.89       13.11       
C           104.01      54.96       14.18       
C           99.49       53.03       10.37       
C           100.28      53.69       9.52        
S           99.98       53.41       12.0        
H           102.08      55.01       9.61        
H           100.07      53.58       8.48        
C           101.32      54.44       10.11       
C           101.34      54.34       11.46       
H           48.29       33.74       23.56       
H           98.57       52.48       10.09       
