392

C           28.67       27.71       8.4         
C           27.35       28.12       8.48        
N           29.34       28.02       9.58        
C           28.38       28.34       10.57       
C           26.03       28.13       7.81        
O           25.68       27.72       6.72        
O           28.68       28.5        11.77       
C           23.75       28.52       8.73        
C           30.79       28.04       9.97        
H           31.11212    28.96243    10.45318    
H           31.46       27.99       9.14        
H           31.12       27.26       10.58       
H           23.27       29.47       8.86        
H           23.28412    27.77883    9.37941     
H           23.54       28.13       7.74        
N           25.17       28.63       8.86        
C           27.16       28.56       9.82        
C           25.83       28.88       10.04       
C           30.96       26.13       5.5         
C           29.81       26.63       4.96        
S           30.89       26.38       7.22        
H           28.06       27.81       5.77        
H           29.58       26.54       3.9         
C           28.92       27.21       5.97        
C           29.37       27.2        7.23        
C           34.2        24.42       4.15        
C           33.53       24.88       3.09        
S           33.48       24.89       5.63        
H           31.5        25.79       2.87        
H           33.79       24.68       2.07        
C           32.32       25.5        3.52        
C           32.16       25.66       4.87        
C           37.5        22.3        3.49        
C           37.39       22.68       4.83        
S           36.21       23.08       2.73        
H           36.03       23.67       6.18        
H           38.14       22.51       5.63        
C           36.22       23.4        5.15        
C           35.44       23.73       4.16        
C           42.03       20.8        2.92        
C           40.75       20.89       2.47        
N           42.11       21.62       4.02        
C           40.79       22.01       4.44        
C           39.81       20.44       1.47        
O           39.97       19.84       0.41        
O           40.62       22.61       5.49        
C           37.41       20.6        0.9         
C           43.25       22.19       4.77        
H           43.3576     23.25164    4.54763     
H           44.24       21.73       4.48        
H           43.14       21.97       5.92        
H           36.75       21.35       0.62        
H           36.99801    19.64335    1.22121     
H           37.81       20.49       -0.08       
N           38.51       21.02       1.76        
C           39.86       21.58       3.34        
C           38.57       21.66       2.89        
C           44.52       18.65       0.73        
C           45.04       18.87       1.96        
S           43.05       19.56       0.58        
H           44.32       19.55       3.97        
H           46.01       18.57       2.28        
C           44.2        19.61       2.89        
C           43.01       19.98       2.27        
C           46.87       16.54       -1.56       
C           45.68       16.63       -2.2        
S           46.78       17.54       -0.09       
H           43.68       17.57       -1.8        
H           45.56       16.13       -3.21       
C           44.69       17.46       -1.5        
C           45.16       18.05       -0.36       
C           49.88       14.98       -3.52       
C           50.11       14.91       -2.25       
S           48.51       15.97       -3.8        
H           49.12       15.34       -0.28       
H           51.01       14.46       -1.85       
C           49.08       15.4        -1.36       
C           48.13       15.99       -2.06       
C           54.06       13.35       -5.44       
C           52.77       13.8        -5.65       
N           54.39       13.71       -4.16       
C           53.26       14.18       -3.48       
C           51.79       13.89       -6.64       
O           51.81       13.67       -7.82       
O           53.26       14.67       -2.37       
C           49.26       14.3        -6.62       
C           55.73       13.86       -3.59       
H           56.08472    14.86031    -3.3417     
H           56.47       13.29       -4.14       
H           55.98       13.36       -2.63       
H           48.51       14.98       -6.18       
H           48.81957    13.30904    -6.73011    
H           49.42       14.54       -7.63       
N           50.57       14.27       -5.91       
C           52.19       14.2        -4.41       
C           50.87       14.55       -4.57       
C           56.04       11.06       -7.97       
C           55.37       12.05       -8.58       
S           55.83       11.23       -6.24       
H           54.08       13.79       -8.11       
H           55.17       11.93       -9.61       
C           54.66       12.96       -7.73       
C           54.9        12.7        -6.4        
C           57.49       7.66        -9.11       
C           57.79       8.55        -10.07      
S           56.77       8.47        -7.72       
H           57.31       10.62       -10.46      
H           58.27       8.22        -10.95      
C           57.32       9.83        -9.78       
C           56.65       9.95        -8.58       
C           59.06       4.1         -9.13       
C           57.86       4.11        -8.48       
S           59.29       5.73        -9.78       
H           56.19       5.4         -7.8        
H           57.49       3.25        -7.93       
C           57.12       5.32        -8.36       
C           57.77       6.27        -9.09       
C           59.82       -0.58       -9.38       
C           60.3        0.76        -9.4        
N           58.47       -0.41       -9.04       
C           58.11       1.01        -9.09       
C           61.55       1.44        -9.53       
O           62.74       1.06        -9.62       
O           56.95       1.28        -9.01       
C           62.22       3.82        -9.37       
C           57.63       -1.25       -8.28       
H           57.51713    -0.9114     -7.25009    
H           57.98       -2.32       -8.3        
H           56.69       -1.28       -8.85       
H           61.95       4.7         -8.75       
H           62.55228    4.10986     -10.36683   
H           63.04       3.34        -8.82       
N           61.17       2.8         -9.5        
C           59.35       1.72        -9.28       
C           59.79       2.93        -9.42       
C           61.71       -4.04       -9.63       
C           62.55       -3.1        -9.16       
S           60.15       -3.35       -9.9        
H           62.44       -0.95       -8.81       
H           63.65       -3.21       -8.97       
C           61.9        -1.82       -9.03       
C           60.6        -1.81       -9.31       
C           63.34       -7.58       -10.17      
C           62.02       -7.73       -10.32      
S           63.7        -5.94       -9.79       
H           60.18       -6.57       -10.22      
H           61.51       -8.7        -10.37      
C           61.29       -6.52       -10.23      
C           62.05       -5.42       -9.96       
C           65.98       -10.42      -11.07      
C           66.6        -9.62       -10.12      
S           64.37       -9.79       -11.47      
H           66.12       -7.65       -9.2        
H           67.67       -9.71       -9.82       
C           65.73       -8.5        -9.79       
C           64.48       -8.52       -10.3       
C           69.55       -12.65      -13.24      
C           68.28       -12.73      -12.76      
N           70.04       -11.41      -12.97      
C           69.09       -10.6       -12.25      
C           67.05       -13.45      -12.73      
O           66.75       -14.61      -13.03      
O           69.28       -9.42       -11.96      
C           64.78       -13.22      -11.62      
C           71.45       -11.12      -12.81      
H           71.75472    -10.92158   -11.78244   
H           71.76       -10.29      -13.48      
H           72.08       -11.98      -13.02      
H           64.02       -12.53      -11.83      
H           64.81529    -13.67877   -10.63188   
H           64.53       -14.0       -12.29      
N           66.08       -12.67      -12.06      
C           67.94       -11.5       -12.18      
C           66.6        -11.38      -11.87      
C           71.37       -14.79      -15.92      
C           70.57       -15.6       -15.19      
S           71.49       -13.21      -15.16      
H           68.99       -15.37      -13.64      
H           70.33       -16.65      -15.48      
C           69.84       -14.94      -14.18      
C           70.23       -13.63      -14.01      
C           73.04       -14.79      -19.45      
C           73.16       -16.03      -18.99      
S           72.2        -13.77      -18.34      
H           72.42       -17.2       -17.2       
H           73.65       -16.76      -19.53      
C           72.46       -16.23      -17.72      
C           71.99       -15.07      -17.2       
C           73.74       -12.87      -22.81      
C           74.84       -13.71      -22.55      
S           72.65       -12.83      -21.4       
H           75.42       -15.23      -21.18      
H           75.68       -13.79      -23.22      
C           74.65       -14.46      -21.37      
C           73.57       -14.17      -20.68      
C           75.43       -9.61       -25.84      
C           74.33       -10.23      -25.31      
N           76.54       -10.11      -25.26      
C           76.21       -11.31      -24.53      
C           72.89       -10.26      -25.27      
O           72.03       -9.58       -25.76      
O           77.02       -11.88      -23.75      
C           71.11       -11.48      -24.04      
C           77.96       -9.7        -25.13      
H           78.57809    -10.27002   -25.82364   
H           78.31       -9.73       -24.03      
H           78.11       -8.69       -25.51      
H           70.99       -11.65      -22.99      
H           70.74075    -12.30211   -24.6531    
H           70.58       -10.61      -24.28      
N           72.57       -11.3       -24.33      
C           74.73       -11.28      -24.45      
C           73.7        -11.9       -23.84      
C           75.62       -6.4        -28.23      
C           74.41       -7.06       -28.51      
S           76.61       -7.34       -27.13      
H           73.46       -9.03       -27.77      
H           73.64       -6.53       -29.04      
C           74.26       -8.3        -27.68      
C           75.4        -8.56       -26.89      
C           75.9        -2.85       -29.86      
C           76.93       -2.95       -28.94      
S           75.16       -4.41       -30.05      
H           77.6        -4.49       -27.34      
H           77.65       -2.09       -28.74      
C           76.94       -4.21       -28.16      
C           75.93       -5.03       -28.58      
C           75.49       0.33        -32.17      
C           74.53       -0.55       -32.59      
S           76.4        -0.31       -30.79      
H           73.88       -2.54       -31.97      
H           73.84       -0.28       -33.31      
C           74.54       -1.76       -31.77      
C           75.53       -1.77       -30.8       
C           76.26       2.83        -36.19      
C           76.51       2.65        -34.87      
N           75.4        1.83        -36.62      
C           75.24       0.93        -35.51      
C           77.33       3.15        -33.78      
O           78.18       4.02        -33.71      
O           74.71       -0.12       -35.67      
C           77.13       2.96        -31.3       
C           74.46       1.74        -37.73      
H           73.43483    2.00902     -37.47553   
H           74.61       0.85        -38.26      
H           74.67       2.53        -38.48      
H           77.15       2.08        -30.6       
H           76.34967    3.68199     -31.05934   
H           78.12       3.45        -31.32      
N           76.86       2.41        -32.65      
C           75.82       1.53        -34.32      
C           76.1        1.38        -32.98      
C           77.7        6.1         -37.91      
C           77.4        5.17        -38.79      
S           77.3        5.52        -36.32      
H           76.54       3.14        -38.82      
H           77.38       5.34        -39.87      
C           76.85       3.99        -38.26      
C           76.74       3.99        -36.91      
C           79.62       9.55        -38.51      
C           78.57       9.76        -37.64      
S           79.55       7.88        -39.09      
H           76.98       8.76        -36.71      
H           78.37       10.73       -37.29      
C           77.78       8.66        -37.41      
C           78.22       7.47        -38.03      
C           82.93       11.47       -39.64      
C           81.98       12.36       -39.19      
S           82.2        9.92        -39.56      
H           79.98       12.38       -38.17      
H           82.26       13.38       -39.2       
C           80.76       11.85       -38.68      
C           80.7        10.47       -38.94      
C           85.8        13.9        -42.69      
C           85.64       12.8        -41.87      
N           84.76       14.8        -42.36      
C           83.74       14.08       -41.64      
C           86.28       11.52       -41.45      
O           87.31       10.95       -41.77      
O           82.59       14.51       -41.42      
C           85.7        9.83        -39.68      
C           84.83       16.24       -42.21      
H           84.75433    16.45325    -41.14375   
H           84.08       16.72       -42.79      
H           85.85       16.69       -42.5       
H           84.82       9.22        -39.52      
H           86.38327    9.92761     -38.83637   
H           86.27       9.29        -40.45      
N           85.31       10.98       -40.48      
C           84.38       12.81       -41.23      
C           84.13       11.75       -40.42      
C           88.37       14.76       -45.64      
C           88.79       13.73       -44.87      
S           86.88       15.26       -44.95      
H           88.2        12.66       -43.02      
H           89.75       13.15       -45.09      
C           87.98       13.48       -43.7       
C           86.87       14.17       -43.64      
C           90.31       15.74       -49.04      
C           89.36       16.7        -48.79      
S           90.31       14.56       -47.75      
H           87.8        16.98       -47.33      
H           89.01       17.44       -49.51      
C           88.62       16.35       -47.62      
C           88.95       15.24       -46.88      
C           92.69       15.6        -52.25      
C           93.04       14.68       -51.32      
S           91.3        16.48       -51.6       
H           92.52       14.02       -49.31      
H           93.88       14.08       -51.5       
C           92.32       14.72       -50.1       
C           91.24       15.55       -50.09      
C           96.82       16.75       -54.49      
C           95.45       16.73       -54.48      
N           97.25       15.73       -53.66      
C           96.13       15.11       -53.07      
C           94.26       17.42       -55.08      
O           94.03       18.12       -56.02      
O           96.24       14.13       -52.32      
C           91.81       16.99       -55.02      
C           98.53       15.08       -53.53      
H           99.05363    15.38021    -52.62238   
H           98.34       14.04       -53.26      
H           99.1        15.06       -54.46      
H           91.03       17.25       -54.34      
H           91.45052    16.09483    -55.5275    
H           91.83       17.78       -55.71      
N           93.17       16.79       -54.5       
C           94.92       15.86       -53.53      
C           93.54       16.12       -53.35      
C           99.23       19.5        -56.11      
C           98.0        19.95       -56.09      
S           99.27       17.95       -55.37      
H           96.02       19.15       -55.57      
H           97.78       21.01       -56.43      
C           97.06       18.92       -55.73      
C           97.61       17.78       -55.23      
C           102.77      21.22       -56.09      
C           101.86      22.16       -56.39      
S           102.04      19.65       -56.0       
H           99.82       22.35       -56.96      
H           102.07      23.15       -56.58      
C           100.57      21.65       -56.58      
C           100.42      20.28       -56.25      
C           106.28      22.4        -54.82      
C           106.41      21.21       -55.5       
S           104.63      22.83       -54.78      
H           105.11      19.71       -56.48      
H           107.37      20.76       -55.6       
C           105.23      20.69       -55.94      
C           104.12      21.47       -55.72      
C           110.44      23.01       -52.84      
C           109.35      23.62       -53.36      
N           110.4       21.61       -53.13      
C           109.08      21.29       -53.58      
C           108.73      24.94       -53.54      
O           109.05      26.14       -53.25      
O           108.63      20.17       -53.71      
C           106.43      25.64       -54.54      
C           111.46      20.61       -53.22      
H           111.64228   20.35761    -54.26459   
H           111.17      19.69       -52.81      
H           112.43      20.98       -52.9       
H           105.38      25.45       -54.3       
H           106.52289   25.85436    -55.60467   
H           106.69      26.57       -54.09      
N           107.41      24.6        -54.12      
C           108.51      22.62       -53.84      
C           107.33      23.18       -54.29      
C           113.41      24.23       -50.61      
C           112.93      25.28       -51.36      
S           112.42      22.84       -50.9       
H           111.49      25.67       -52.99      
H           113.26      26.34       -51.21      
C           111.87      24.97       -52.25      
C           111.53      23.6        -52.18      
C           115.8       24.87       -47.63      
C           115.92      23.55       -47.93      
S           114.72      25.73       -48.75      
H           114.75      22.19       -49.18      
H           116.45      22.86       -47.33      
C           114.92      23.19       -48.88      
C           114.41      24.26       -49.58      
C           116.98      27.29       -44.83      
C           117.72      26.2        -44.83      
S           115.85      27.2        -46.06      
H           117.94      24.33       -45.85      
H           118.61      26.13       -44.15      
C           117.41      25.25       -45.81      
C           116.35      25.65       -46.55      
H           25.33       28.93       10.98       
H           116.82      27.83       -43.88      
