392

C           23.77       5.33        41.45       
C           22.9        4.47        40.83       
N           23.66       5.21        42.85       
C           22.7        4.19        43.18       
C           22.29       3.91        39.62       
O           22.36       4.2         38.44       
O           22.24       3.95        44.33       
C           20.54       2.2         39.18       
C           24.63       5.41        43.93       
H           25.23386    4.5263      44.1362     
H           24.17       5.72        44.87       
H           25.32       6.24        43.63       
H           19.5        2.42        39.31       
H           20.72277    1.13264     39.30428    
H           20.76       2.51        38.23       
N           21.27       3.07        40.04       
C           22.19       3.79        41.9        
C           21.18       3.04        41.4        
C           26.61       7.79        40.08       
C           26.09       7.03        39.05       
S           25.73       7.42        41.48       
H           24.44       5.4         38.72       
H           26.44       7.15        37.99       
C           25.0        6.07        39.4        
C           24.76       6.13        40.76       
C           30.02       9.59        39.76       
C           29.28       10.36       40.59       
S           29.06       8.35        39.03       
H           27.33       10.12       41.65       
H           29.71       11.2        41.08       
C           28.0        9.8         40.88       
C           27.64       8.81        39.98       
C           33.75       10.54       38.87       
C           33.47       9.26        38.4        
S           32.36       11.09       39.75       
H           31.7        7.9         38.33       
H           34.23       8.67        37.85       
C           32.16       8.84        38.63       
C           31.41       9.73        39.37       
C           38.4        11.04       38.25       
C           37.17       11.73       38.46       
N           38.24       9.71        38.45       
C           36.84       9.4         38.67       
C           36.53       13.0        38.42       
O           36.92       14.16       38.25       
O           36.39       8.29        38.9        
C           34.17       13.75       38.65       
C           39.14       8.58        38.67       
H           39.07729    8.17585     39.68036    
H           40.18       8.83        38.54       
H           38.96       7.84        37.87       
H           33.62       13.81       39.55       
H           33.60001    13.79385    37.72194    
H           34.64       14.71       38.73       
N           35.17       12.66       38.74       
C           36.13       10.71       38.61       
C           34.95       11.28       38.79       
C           41.91       12.2        36.9        
C           41.32       13.3        37.45       
S           40.8        10.85       36.92       
H           39.35       13.7        38.39       
H           41.68       14.29       37.4        
C           40.0        12.97       37.99       
C           39.64       11.6        37.9        
C           45.19       11.19       35.08       
C           44.99       12.51       35.0        
S           44.0        10.63       36.26       
H           43.63       14.12       35.52       
H           45.65       13.05       34.51       
C           43.82       13.03       35.54       
C           43.12       12.07       36.16       
C           48.02       8.76        35.2        
C           48.46       9.79        34.5        
S           46.32       8.82        35.53       
H           47.72       11.69       33.88       
H           49.45       9.8         34.11       
C           47.49       10.72       34.25       
C           46.31       10.39       34.86       
C           51.16       5.42        33.78       
C           50.25       5.81        34.72       
N           51.21       6.43        32.81       
C           50.4        7.5         33.22       
C           49.54       5.44        35.92       
O           49.51       4.44        36.59       
O           50.28       8.45        32.45       
C           47.98       6.6         37.6        
C           51.81       6.43        31.49       
H           51.08689    6.2203      30.70181    
H           52.52       5.58        31.32       
H           52.32       7.35        31.32       
H           47.04       7.06        37.28       
H           48.45626    7.21336     38.3649     
H           47.75       5.61        37.91       
N           48.78       6.56        36.32       
C           49.77       7.11        34.44       
C           48.78       7.52        35.25       
C           53.68       2.34        33.78       
C           52.52       1.98        34.48       
S           53.47       3.94        33.17       
H           50.58       2.99        34.92       
H           52.25       0.99        34.89       
C           51.51       3.05        34.49       
C           51.85       4.17        33.76       
C           57.07       0.62        32.79       
C           56.6        0.08        33.94       
S           56.0        1.89        32.3        
H           54.95       0.26        35.34       
H           57.15       -0.66       34.43       
C           55.38       0.57        34.38       
C           54.87       1.59        33.62       
C           60.28       -0.71       30.86       
C           59.97       0.56        30.43       
S           59.18       -1.12       32.1        
H           58.47       2.11        30.79       
H           60.57       1.08        29.65       
C           58.81       1.12        31.04       
C           58.22       0.34        32.01       
C           62.97       -2.41       27.36       
C           62.57       -2.44       28.67       
N           62.21       -1.35       26.73       
C           61.27       -0.73       27.66       
C           62.9        -3.05       29.9        
O           63.8        -3.74       30.23       
O           60.47       0.12        27.5        
C           61.99       -2.98       32.33       
C           62.06       -1.12       25.33       
H           62.0079     -0.07065    25.03975    
H           61.09       -1.57       24.97       
H           62.82       -1.66       24.7        
H           60.94       -3.17       32.66       
H           62.44123    -2.2679     33.02095    
H           62.54       -3.95       32.4        
N           61.99       -2.52       30.91       
C           61.59       -1.42       28.92       
C           61.21       -1.55       30.27       
C           66.01       -4.22       25.64       
C           65.48       -4.99       26.58       
S           64.97       -2.86       25.38       
H           63.89       -5.0        28.04       
H           65.9        -6.01       26.72       
C           64.34       -4.45       27.22       
C           63.88       -3.3        26.7        
C           68.94       -4.4        22.99       
C           68.73       -5.67       23.45       
S           67.91       -3.26       23.75       
H           67.49       -6.61       24.99       
H           69.29       -6.52       23.17       
C           67.74       -5.68       24.45       
C           67.1        -4.5        24.66       
C           71.08       -2.44       20.47       
C           70.92       -3.75       19.95       
S           70.43       -2.32       22.06       
H           70.0        -5.73       20.63       
H           71.25       -4.0        18.95       
C           70.24       -4.64       20.82       
C           69.82       -3.93       21.97       
C           73.39       -0.28       16.85       
C           72.65       -0.12       18.07       
N           73.72       -1.64       16.74       
C           73.17       -2.39       17.83       
C           72.02       0.86        18.91       
O           71.84       2.06        18.81       
O           73.34       -3.6        18.03       
C           70.33       0.69        20.69       
C           74.74       -2.28       15.89       
H           74.30815    -3.01832    15.21436    
H           75.5        -2.74       16.51       
H           75.32       -1.63       15.23       
H           70.35       0.45        21.75       
H           69.30146    0.62481     20.33508    
H           70.58       1.75        20.66       
N           71.34       0.0         19.86       
C           72.44       -1.45       18.63       
C           71.71       -1.34       19.76       
C           74.63       2.23        13.98       
C           74.52       2.85        15.18       
S           74.29       0.56        14.25       
H           73.81       2.43        17.26       
H           74.74       3.89        15.29       
C           73.98       2.04        16.23       
C           73.98       0.7         15.93       
C           75.73       4.42        11.0        
C           75.16       3.29        10.48       
S           75.72       4.34        12.73       
H           74.12       1.51        11.18       
H           75.02       3.19        9.44        
C           74.66       2.42        11.45       
C           74.88       2.86        12.75       
C           77.44       7.12        8.7         
C           76.62       7.77        9.54        
S           77.29       5.37        8.97        
H           75.61       7.19        11.49       
H           76.59       8.83        9.64        
C           76.13       6.89        10.6        
C           76.22       5.59        10.31       
C           78.57       10.38       5.37        
C           78.99       9.35        6.2         
N           77.33       10.78       5.93        
C           76.87       9.9         7.03        
C           80.08       8.35        6.51        
O           81.21       8.27        5.98        
O           75.82       9.92        7.51        
C           80.47       6.41        8.11        
C           76.72       12.03       5.55        
H           76.37801    12.55723    6.4406      
H           75.86       11.79       4.93        
H           77.39       12.69       5.04        
H           79.88       5.52        8.24        
H           81.00005    6.68563     9.02169     
H           81.23       6.19        7.31        
N           79.6        7.42        7.54        
C           77.97       8.97        7.19        
C           78.29       7.76        7.81        
C           79.63       11.5        1.73        
C           80.68       10.86       2.26        
S           78.37       11.68       2.89        
H           81.16       9.76        4.09        
H           81.59       10.6        1.7         
C           80.4        10.29       3.55        
C           79.23       10.81       4.16        
C           79.26       12.3        -2.02       
C           78.2        12.97       -1.39       
S           80.33       11.57       -0.9        
H           77.62       13.39       0.74        
H           77.43       13.55       -1.9        
C           78.32       12.93       0.03        
C           79.33       12.08       0.43        
C           80.57       11.64       -5.69       
C           79.21       11.7        -5.73       
S           81.06       12.13       -4.11       
H           77.61       12.01       -4.28       
H           78.68       11.45       -6.64       
C           78.62       11.96       -4.47       
C           79.49       12.09       -3.46       
C           81.83       11.06       -10.26      
C           82.13       11.16       -8.94       
N           80.45       11.35       -10.34      
C           79.85       11.39       -9.02       
C           83.33       11.11       -8.06       
O           84.45       10.94       -8.32       
O           78.71       11.73       -8.86       
C           83.69       11.47       -5.62       
C           79.64       11.31       -11.51      
H           78.9048     10.50993    -11.42351   
H           80.17       11.28       -12.41      
H           79.13       12.31       -11.74      
H           83.45       10.85       -4.74       
H           83.91741    12.48991    -5.30989    
H           84.54       11.02       -6.02       
N           82.79       11.44       -6.75       
C           81.05       11.43       -8.11       
C           81.4        11.46       -6.8        
C           84.2        10.24       -13.39      
C           84.86       10.97       -12.44      
S           82.55       10.07       -12.88      
H           84.47       11.92       -10.51      
H           85.92       11.13       -12.47      
C           84.07       11.34       -11.33      
C           82.78       10.93       -11.39      
C           86.84       8.63        -15.77      
C           85.63       8.03        -16.02      
S           86.67       9.88        -14.61      
H           83.53       8.03        -15.26      
H           85.58       7.23        -16.72      
C           84.56       8.48        -15.18      
C           84.93       9.48        -14.37      
C           90.54       8.13        -16.76      
C           89.82       7.63        -17.77      
S           89.58       9.06        -15.7       
H           87.6        7.28        -18.15      
H           90.23       6.84        -18.43      
C           88.4        7.78        -17.56      
C           88.12       8.45        -16.42      
C           94.96       6.94        -18.14      
C           94.17       7.5         -17.17      
N           94.28       6.91        -19.32      
C           92.91       7.16        -19.04      
C           94.08       7.72        -15.78      
O           94.82       7.59        -14.84      
O           92.11       7.05        -19.89      
C           92.28       8.29        -14.24      
C           94.75       6.8         -20.7       
H           94.64504    7.73765     -21.2458    
H           94.24       6.0         -21.2       
H           95.91       6.59        -20.87      
H           91.32       7.8         -14.04      
H           92.21481    9.32578     -13.90681   
H           93.01       7.75        -13.7       
N           92.71       8.17        -15.56      
C           92.8        7.62        -17.66      
C           91.98       8.15        -16.72      
C           98.7        5.68        -18.01      
C           98.48       6.62        -17.11      
S           97.19       5.48        -18.9       
H           96.82       7.94        -16.38      
H           99.2        6.95        -16.38      
C           97.16       7.2         -17.06      
C           96.35       6.68        -17.99      
C           102.19      4.21        -18.3       
C           101.69      4.08        -19.54      
S           101.09      4.87        -17.14      
H           99.79       4.61        -20.53      
H           102.23      3.69        -20.43      
C           100.34      4.52        -19.58      
C           99.9        5.02        -18.39      
C           105.96      3.43        -18.02      
C           105.41      3.44        -16.76      
S           104.77      3.77        -19.16      
H           103.44      3.9         -15.78      
H           106.0       3.19        -15.86      
C           104.07      3.78        -16.68      
C           103.54      3.91        -17.93      
C           110.57      3.69        -16.88      
C           109.62      3.62        -17.87      
N           109.88      4.03        -15.73      
C           108.47      4.16        -15.92      
C           109.44      3.34        -19.31      
O           110.2       3.17        -20.2       
O           107.82      4.63        -14.97      
C           107.48      3.0         -20.79      
C           110.31      3.82        -14.34      
H           110.38545   2.74314     -14.1891    
H           111.23      4.37        -14.09      
H           109.61      4.21        -13.61      
H           106.68      3.67        -20.99      
H           107.36893   1.94486     -21.0399    
H           108.19      3.46        -21.5       
N           108.02      3.2         -19.43      
C           108.28      3.74        -17.28      
C           107.33      3.5         -18.25      
C           114.42      3.1         -17.08      
C           113.79      2.31        -18.05      
S           113.22      3.85        -16.08      
H           111.74      2.06        -18.79      
H           114.33      1.84        -18.85      
C           112.4       2.43        -18.03      
C           111.91      3.22        -17.06      
C           118.23      2.39        -16.14      
C           117.58      3.05        -15.07      
S           117.13      2.24        -17.42      
H           115.58      3.91        -14.67      
H           118.07      3.36        -14.16      
C           116.19      3.38        -15.35      
C           115.79      2.99        -16.59      
C           122.15      1.86        -16.32      
C           121.5       1.21        -17.36      
S           120.83      2.39        -15.27      
H           119.49      0.78        -18.13      
H           122.05      0.62        -18.02      
C           120.09      1.29        -17.37      
C           119.56      2.0         -16.35      
C           126.39      -0.33       -15.53      
C           125.63      0.82        -15.4       
N           125.64      -1.23       -16.35      
C           124.27      -0.65       -16.67      
C           125.58      2.21        -14.95      
O           126.51      3.0         -14.58      
O           123.29      -1.21       -17.27      
C           124.01      4.17        -15.57      
C           125.81      -2.68       -16.49      
H           125.1601    -3.23412    -15.81274   
H           126.85      -2.83       -16.3       
H           125.68      -3.11       -17.47      
H           122.91      4.33        -15.7       
H           124.5421    4.65837     -16.38637   
H           124.29      4.55        -14.54      
N           124.32      2.74        -15.49      
C           124.32      0.64        -16.04      
C           123.49      1.73        -15.86      
C           129.93      -1.19       -14.04      
C           129.39      -0.1        -13.38      
S           128.93      -1.56       -15.46      
H           127.36      0.92        -13.29      
H           129.93      0.42        -12.61      
C           128.04      0.14        -13.72      
C           127.63      -0.59       -14.83      
C           133.55      -2.4        -13.15      
C           133.03      -3.3        -14.01      
S           132.46      -1.12       -12.89      
H           131.18      -3.51       -15.25      
H           133.58      -4.24       -14.3       
C           131.71      -2.95       -14.5       
C           131.21      -1.77       -13.98      
C           136.93      -3.16       -11.33      
C           136.76      -1.79       -11.41      
S           135.58      -3.97       -12.06      
H           135.28      -0.39       -12.21      
H           137.53      -1.08       -11.07      
C           135.57      -1.39       -12.05      
C           134.74      -2.44       -12.43      
H           20.6        2.36        42.01       
H           137.8       -3.64       -11.02      
