392

C           51.3        6.72        5.64        
C           51.44       6.75        7.01        
N           50.64       5.52        5.33        
C           50.31       4.81        6.53        
C           51.91       7.55        8.07        
O           52.58       8.54        8.09        
O           49.57       3.87        6.55        
C           52.38       7.09        10.51       
C           50.82       4.6         4.18        
H           51.69229    3.98511     4.40165     
H           50.94       5.07        3.28        
H           49.96       3.92        4.02        
H           52.37       6.22        11.16       
H           51.95202    7.98224     10.967      
H           53.45       7.22        10.22       
N           51.74       6.71        9.28        
C           50.88       5.54        7.61        
C           51.1        5.53        8.97        
C           52.0        9.25        2.71        
C           52.61       9.71        3.84        
S           51.29       7.75        3.0         
H           52.52       9.32        5.98        
H           53.29       10.56       3.79        
C           52.26       8.94        5.02        
C           51.63       7.78        4.73        
C           51.21       11.16       -0.66       
C           52.21       11.77       -0.02       
S           50.68       9.77        0.27        
H           53.31       11.57       1.92        
H           52.55       12.7        -0.33       
C           52.57       11.14       1.19        
C           51.89       10.0        1.48        
C           49.2        11.2        -4.0        
C           50.16       12.11       -4.17       
S           49.21       10.6        -2.36       
H           51.95       12.78       -2.95       
H           50.27       12.61       -5.11       
C           51.07       12.17       -3.04       
C           50.6        11.42       -1.97       
C           46.26       12.1        -7.73       
C           46.61       11.33       -6.65       
N           47.01       13.23       -7.63       
C           47.84       13.24       -6.47       
C           46.29       10.07       -6.07       
O           45.43       9.26        -6.27       
O           48.79       13.99       -6.27       
C           47.55       8.48        -4.52       
C           46.95       14.43       -8.53       
H           46.98364    15.4124     -8.05899    
H           45.99       14.43       -8.9        
H           47.77       14.39       -9.3        
H           47.83       8.42        -3.45       
H           48.29821    7.97884     -5.1341     
H           46.66       7.96        -4.52       
N           47.38       9.87        -5.07       
C           47.65       11.92       -5.88       
C           48.09       11.04       -4.93       
C           44.53       11.13       -11.04      
C           43.94       10.38       -10.04      
S           45.68       12.29       -10.41      
H           44.1        10.26       -7.83       
H           43.18       9.65        -10.1       
C           44.5        10.7        -8.78       
C           45.31       11.8        -8.8        
C           44.7        11.38       -14.92      
C           43.61       10.66       -14.69      
S           45.37       12.11       -13.5       
H           42.85       9.73        -12.84      
H           43.01       10.19       -15.46      
C           43.49       10.43       -13.3       
C           44.32       11.11       -12.5       
C           46.39       11.17       -18.45      
C           46.85       12.31       -17.78      
S           45.44       10.26       -17.4       
H           46.3        13.41       -15.89      
H           47.6        12.92       -18.29      
C           46.18       12.53       -16.56      
C           45.3        11.54       -16.19      
C           49.64       10.8        -21.91      
C           48.44       10.56       -21.46      
N           50.28       11.48       -20.91      
C           49.46       11.75       -19.76      
C           47.17       9.99        -21.81      
O           46.84       9.38        -22.88      
O           49.82       12.42       -18.81      
C           44.93       9.68        -20.71      
C           51.72       11.65       -20.76      
H           52.07012    11.04079    -19.92671   
H           51.88       12.72       -20.63      
H           52.35       11.4        -21.61      
H           44.19       10.36       -20.31      
H           44.70722    8.72422     -20.2357    
H           44.74       9.52        -21.74      
N           46.35       10.01       -20.65      
C           48.22       11.09       -20.14      
C           46.96       10.74       -19.68      
C           51.49       9.94        -25.27      
C           50.59       9.0         -25.0       
S           51.42       11.23       -24.09      
H           49.15       8.46        -23.42      
H           50.42       8.2         -25.74      
C           49.95       9.07        -23.75      
C           50.28       10.28       -23.13      
C           54.69       9.95        -27.31      
C           53.76       9.29        -28.01      
S           54.07       10.66       -25.88      
H           51.68       8.78        -27.84      
H           53.98       8.89        -28.97      
C           52.49       9.36        -27.46      
C           52.51       9.9         -26.22      
C           58.43       10.0        -28.57      
C           58.39       10.24       -27.2       
S           56.81       9.77        -29.05      
H           56.96       10.5        -25.59      
H           59.28       10.49       -26.65      
C           57.09       10.3        -26.61      
C           56.09       10.05       -27.5       
C           63.21       9.85        -29.62      
C           61.85       9.9         -30.03      
N           63.16       9.71        -28.25      
C           61.8        9.73        -27.7       
C           61.04       10.16       -31.2       
O           61.33       10.37       -32.36      
O           61.56       9.91        -26.45      
C           58.63       10.24       -31.68      
C           64.22       9.21        -27.27      
H           63.98176    8.23537     -26.84405   
H           64.44       9.91        -26.46      
H           65.17       9.04        -27.78      
H           57.67       10.58       -31.28      
H           58.4289     9.34545     -32.26943   
H           58.93       11.12       -32.17      
N           59.68       10.08       -30.68      
C           60.97       9.82        -28.88      
C           59.66       9.89        -29.31      
C           66.61       10.01       -31.47      
C           65.7        9.51        -32.3       
S           65.93       10.26       -29.91      
H           63.5        8.9         -32.27      
H           65.95       9.23        -33.27      
C           64.39       9.31        -31.74      
C           64.37       9.71        -30.43      
C           69.88       11.49       -33.17      
C           69.98       11.54       -31.74      
S           68.45       10.59       -33.6       
H           68.71       10.87       -29.97      
H           70.75       11.94       -31.2       
C           68.83       10.97       -31.07      
C           67.9        10.46       -31.9       
C           72.69       12.92       -35.5       
C           71.51       12.86       -36.16      
S           72.49       12.42       -33.82      
H           69.5        12.06       -35.94      
H           71.36       13.08       -37.23      
C           70.45       12.17       -35.45      
C           70.78       12.08       -34.16      
C           75.53       13.2        -39.24      
C           75.38       13.44       -37.9       
N           74.48       12.44       -39.66      
C           73.49       12.3        -38.62      
C           76.01       14.07       -36.73      
O           77.01       14.82       -36.63      
O           72.5        11.68       -38.75      
C           75.27       14.44       -34.34      
C           74.6        11.31       -40.66      
H           74.7807     10.39928    -40.089     
H           75.46       11.45       -41.31      
H           73.69       11.22       -41.2       
H           74.96       13.82       -33.47      
H           74.78608    15.40082    -34.16467   
H           76.31       14.54       -34.23      
N           75.04       13.89       -35.65      
C           74.1        12.94       -37.46      
C           73.96       13.18       -36.13      
C           78.32       14.46       -41.9       
C           78.83       14.52       -40.63      
S           76.72       13.73       -41.77      
H           78.16       13.87       -38.61      
H           79.82       14.85       -40.35      
C           77.86       13.99       -39.65      
C           76.69       13.53       -40.07      
C           79.14       14.71       -45.65      
C           80.24       15.07       -45.05      
S           77.8        14.48       -44.51      
H           80.94       15.29       -42.95      
H           81.13       15.17       -45.7       
C           80.1        15.17       -43.61      
C           78.86       14.85       -43.18      
C           78.26       14.04       -49.33      
C           79.37       13.32       -49.03      
S           77.88       15.03       -47.98      
H           80.84       13.21       -47.29      
H           79.86       12.78       -49.87      
C           79.92       13.59       -47.72      
C           79.08       14.28       -46.99      
C           77.5        12.92       -54.04      
C           77.16       13.58       -52.92      
N           78.31       11.89       -53.6       
C           78.66       12.0        -52.18      
C           76.24       14.64       -52.44      
O           75.26       15.17       -52.99      
O           79.49       11.35       -51.61      
C           75.96       15.94       -50.37      
C           78.5        10.57       -54.21      
H           79.55739    10.39377    -54.40738   
H           77.84       10.61       -55.1       
H           77.97       9.77        -53.66      
H           76.64       16.43       -49.65      
H           75.10033    15.60452    -49.7899    
H           75.7        16.51       -51.2       
N           76.56       14.83       -51.07      
C           77.84       13.17       -51.74      
C           77.58       14.0        -50.68      
C           77.06       13.75       -57.83      
C           75.87       14.04       -57.26      
S           78.15       13.13       -56.7       
H           75.03       13.87       -55.22      
H           74.97       14.38       -57.81      
C           75.88       13.7        -55.86      
C           77.01       13.11       -55.38      
C           78.88       14.64       -61.16      
C           77.65       14.04       -61.44      
S           79.01       14.74       -59.45      
H           75.81       13.23       -60.3       
H           77.28       14.08       -62.46      
C           76.85       13.64       -60.33      
C           77.53       13.93       -59.22      
C           81.48       15.47       -64.06      
C           81.57       16.38       -63.09      
S           80.35       14.22       -63.54      
H           80.87       16.66       -61.0       
H           82.17       17.28       -63.18      
C           80.86       16.06       -61.91      
C           79.96       15.03       -62.02      
C           83.99       17.45       -67.65      
C           83.24       16.41       -67.23      
N           84.27       18.27       -66.57      
C           83.59       17.79       -65.41      
C           82.48       15.18       -67.6       
O           82.3        14.57       -68.65      
O           83.81       18.34       -64.29      
C           81.27       13.26       -66.5       
C           85.56       18.91       -66.33      
H           86.32635    18.14365    -66.21368   
H           85.53       19.55       -65.49      
H           85.91       19.48       -67.16      
H           80.48       13.18       -65.82      
H           81.96986    12.43784    -66.35052   
H           80.69       13.21       -67.45      
N           81.91       14.56       -66.42      
C           82.89       16.57       -65.85      
C           82.12       15.51       -65.36      
C           85.08       18.59       -71.29      
C           84.53       17.31       -71.34      
S           84.91       19.23       -69.68      
H           83.84       15.8        -69.8       
H           84.6        16.6        -72.12      
C           84.09       16.83       -70.08      
C           84.31       17.68       -69.05      
C           87.74       19.39       -74.01      
C           87.42       20.53       -73.37      
S           86.89       18.08       -73.33      
H           86.01       21.26       -71.79      
H           87.94       21.45       -73.63      
C           86.39       20.39       -72.36      
C           85.98       19.11       -72.26      
C           90.91       18.01       -75.99      
C           91.12       19.31       -75.67      
S           89.39       17.55       -75.33      
H           89.92       21.02       -74.74      
H           92.02       19.73       -76.04      
C           89.97       19.95       -75.02      
C           88.87       19.14       -74.85      
C           95.22       16.19       -76.97      
C           93.78       16.01       -77.01      
N           95.47       17.32       -76.31      
C           94.26       18.03       -76.0       
C           92.71       15.15       -77.44      
O           92.63       14.08       -77.94      
O           94.38       19.23       -75.72      
C           90.26       15.3        -77.55      
C           96.72       17.64       -75.63      
H           96.49828    17.58278    -74.56432   
H           97.05       18.69       -75.82      
H           97.54       16.94       -75.71      
H           89.46       16.02       -77.41      
H           89.92588    14.35334    -77.12539   
H           90.4        15.22       -78.59      
N           91.51       15.8        -77.03      
C           93.18       17.13       -76.39      
C           91.81       17.0        -76.41      
C           98.2        13.92       -78.32      
C           96.95       13.29       -78.4       
S           97.85       15.46       -77.61      
H           94.81       13.65       -77.84      
H           96.86       12.23       -78.77      
C           95.85       14.01       -77.99      
C           96.17       15.23       -77.54      
C           101.92      12.46       -78.58      
C           101.06      11.42       -78.18      
S           101.0       13.92       -78.86      
H           98.94       11.31       -77.76      
H           101.33      10.4        -78.02      
C           99.71       11.94       -78.02      
C           99.47       13.23       -78.44      
C           105.78      11.74       -78.81      
C           105.53      13.1        -79.01      
S           104.29      10.99       -78.56      
H           103.73      14.34       -79.34      
H           106.31      13.81       -79.12      
C           104.15      13.33       -79.24      
C           103.34      12.34       -78.91      
C           110.62      11.88       -77.99      
C           109.55      11.17       -78.37      
N           110.15      13.13       -77.68      
C           108.68      13.29       -77.71      
C           109.1       9.9         -78.88      
O           109.68      8.88        -79.21      
O           108.06      14.37       -77.47      
C           106.84      8.8         -78.81      
C           110.81      14.41       -77.56      
H           111.19765   14.84611    -78.48067   
H           110.06      15.1        -77.15      
H           111.59      14.43       -76.83      
H           105.95      8.99        -79.25      
H           106.76868   8.30788     -77.84003   
H           107.28      8.09        -79.42      
N           107.64      10.01       -78.75      
C           108.3       11.96       -78.21      
C           107.15      11.26       -78.56      
C           114.48      11.14       -77.54      
C           113.9       10.1        -78.22      
S           113.31      12.4        -77.11      
H           112.09      9.67        -79.16      
H           114.44      9.29        -78.62      
C           112.65      10.41       -78.62      
C           112.06      11.57       -78.03      
C           118.26      11.37       -76.78      
C           117.73      12.61       -76.66      
S           117.06      10.22       -77.24      
H           115.71      13.33       -76.58      
H           118.35      13.45       -76.55      
C           116.33      12.56       -76.84      
C           115.81      11.39       -77.18      
C           122.24      11.06       -76.88      
C           121.72      9.96        -76.31      
S           120.9       12.17       -77.29      
H           119.81      9.12        -75.77      
H           122.42      9.17        -75.97      
C           120.32      9.95        -76.23      
C           119.67      11.05       -76.67      
C           126.62      11.45       -74.88      
C           125.78      11.69       -75.99      
N           126.04      10.46       -74.11      
C           124.71      10.17       -74.7       
C           125.67      12.49       -77.22      
O           126.42      13.24       -77.83      
O           123.91      9.36        -74.29      
C           123.91      12.62       -79.04      
C           126.48      10.04       -72.76      
H           125.70427   10.11551    -71.998     
H           127.33      10.6        -72.34      
H           127.0       9.09        -72.99      
H           122.9       13.03       -79.14      
H           123.99281   11.79189    -79.7439    
H           124.61      13.44       -79.37      
N           124.3       12.26       -77.66      
C           124.53      11.06       -75.81      
C           123.59      11.47       -76.76      
C           130.33      12.66       -74.35      
C           129.74      13.55       -75.24      
S           129.2       11.45       -73.76      
H           127.65      13.72       -76.0       
H           130.17      14.4        -75.7       
C           128.35      13.17       -75.41      
C           127.9       12.09       -74.7       
C           133.76      12.41       -72.44      
C           133.93      13.18       -73.52      
S           132.08      12.01       -72.3       
H           132.76      13.94       -75.22      
H           134.88      13.53       -73.79      
C           132.75      13.31       -74.34      
C           131.65      12.7        -73.83      
C           136.52      11.72       -69.71      
C           135.49      10.81       -69.49      
S           136.2       12.66       -71.12      
H           133.58      10.29       -70.44      
H           135.5       10.06       -68.61      
C           134.43      10.95       -70.44      
C           134.62      11.95       -71.36      
H           50.94       4.7         9.64        
H           137.42      11.76       -69.23      
