392

C           58.87       21.53       4.35        
C           58.72       22.43       3.28        
N           58.73       22.27       5.52        
C           58.27       23.63       5.19        
C           58.68       22.54       1.88        
O           58.73       21.66       0.96        
O           57.76       24.34       5.98        
C           59.3        24.4        0.35        
C           59.24       21.92       6.87        
H           59.81744    22.73398    7.3083      
H           59.94       21.02       6.76        
H           58.41       21.61       7.57        
H           60.0        25.19       0.48        
H           58.5802     24.59693    -0.44449    
H           59.97       23.56       0.03        
N           58.64       23.94       1.55        
C           58.43       23.74       3.76        
C           58.36       24.62       2.73        
C           60.33       17.9        4.38        
C           60.63       18.55       3.19        
S           59.46       18.97       5.46        
H           60.39       20.53       2.26        
H           61.26       18.2        2.34        
C           60.24       19.87       3.15        
C           59.53       20.22       4.24        
C           61.04       14.04       4.94        
C           61.12       14.75       6.15        
S           60.68       15.23       3.74        
H           60.85       16.77       6.96        
H           61.31       14.25       7.03        
C           60.86       16.12       6.09        
C           60.65       16.59       4.83        
C           61.18       10.23       3.73        
C           61.23       10.31       5.08        
S           61.17       11.87       3.11        
H           61.33       11.83       6.73        
H           61.39       9.37        5.6         
C           61.21       11.63       5.64        
C           61.06       12.61       4.65        
C           61.3        8.08        -0.46       
C           61.76       8.01        0.86        
N           60.53       9.25        -0.58       
C           60.11       9.73        0.74        
C           62.61       7.37        1.81        
O           63.52       6.52        1.75        
O           59.3        10.63       0.9         
C           63.53       8.19        4.05        
C           60.62       10.11       -1.74       
H           60.9566     11.10484    -1.44828    
H           59.63       10.32       -2.16       
H           61.2        9.65        -2.5        
H           63.02       8.23        5.02        
H           64.23571    9.02025     4.02233     
H           64.05       7.23        3.97        
N           62.51       8.17        3.0         
C           61.09       9.1         1.59        
C           61.46       9.1         2.9         
C           61.57       5.86        -3.79       
C           62.63       5.6         -2.97       
S           60.5        6.97        -2.95       
H           63.44       6.32        -0.99       
H           63.55       5.16        -3.3        
C           62.61       6.28        -1.71       
C           61.59       7.16        -1.56       
C           61.02       4.54        -7.44       
C           59.87       4.92        -6.94       
S           62.2        4.67        -6.17       
H           58.95       5.7         -5.05       
H           58.96       4.8         -7.51       
C           59.87       5.45        -5.61       
C           61.08       5.38        -5.03       
C           61.61       2.69        -10.82      
C           62.73       3.34        -10.48      
S           60.38       2.93        -9.63       
H           63.53       4.48        -8.83       
H           63.51       3.51        -11.18      
C           62.69       3.9         -9.2        
C           61.47       3.86        -8.6        
C           61.21       3.12        -15.63      
C           61.0        2.39        -14.52      
N           62.12       4.14        -15.26      
C           62.31       4.16        -13.82      
C           60.42       1.19        -14.01      
O           59.82       0.29        -14.48      
O           62.73       5.13        -13.3       
C           60.23       0.07        -11.77      
C           62.56       5.34        -16.02      
H           63.64598    5.34        -16.1135    
H           62.21       6.27        -15.57      
H           62.26       5.37        -17.06      
H           59.58       0.34        -11.01      
H           61.04769    -0.53288    -11.37501   
H           59.69       -0.65       -12.33      
N           60.72       1.18        -12.63      
C           61.57       3.02        -13.36      
C           61.21       2.36        -12.2       
C           59.74       2.69        -19.22      
C           58.79       2.3         -18.31      
S           61.23       3.2         -18.41      
H           58.78       1.94        -16.1       
H           57.81       1.84        -18.53      
C           59.32       2.34        -16.98      
C           60.49       3.03        -16.83      
C           59.99       3.05        -23.12      
C           58.66       3.14        -22.71      
S           60.98       3.04        -21.63      
H           57.52       2.78        -20.88      
H           57.76       3.26        -23.38      
C           58.45       2.96        -21.29      
C           59.6        2.86        -20.62      
C           60.75       3.58        -27.0       
C           61.81       2.83        -26.41      
S           59.67       4.05        -25.72      
H           62.42       2.18        -24.36      
H           62.67       2.56        -27.03      
C           61.71       2.75        -25.01      
C           60.61       3.3         -24.49      
C           61.76       3.01        -31.7       
C           61.07       3.66        -30.72      
N           62.51       2.06        -31.03      
C           62.24       2.01        -29.62      
C           60.18       4.81        -30.51      
O           59.78       5.69        -31.3       
O           62.71       1.24        -28.86      
C           58.97       5.82        -28.56      
C           63.17       0.92        -31.61      
H           64.23001    0.8702      -31.361     
H           63.1        0.86        -32.74      
H           62.71       0.01        -31.22      
H           59.43       6.33        -27.69      
H           57.99226    5.40687     -28.31212   
H           58.9        6.6         -29.42      
N           59.97       4.84        -29.05      
C           61.3        3.09        -29.39      
C           60.61       3.75        -28.42      
C           61.63       3.67        -35.5       
C           60.34       3.6         -35.01      
S           62.71       3.42        -34.16      
H           59.36       3.72        -33.03      
H           59.46       3.77        -35.6       
C           60.27       3.54        -33.65      
C           61.45       3.09        -33.08      
C           63.68       3.77        -38.84      
C           62.48       3.15        -39.05      
S           63.74       4.26        -37.14      
H           60.73       2.51        -37.96      
H           62.13       2.78        -40.01      
C           61.66       3.04        -37.88      
C           62.21       3.61        -36.77      
C           66.55       4.51        -41.45      
C           66.85       5.15        -40.27      
S           65.21       3.46        -41.15      
H           65.85       5.59        -38.35      
H           67.8        5.55        -40.08      
C           65.76       5.12        -39.31      
C           64.79       4.2         -39.66      
C           70.63       5.46        -43.82      
C           69.34       5.01        -43.83      
N           71.04       5.37        -42.51      
C           70.0        4.86        -41.67      
C           68.19       4.82        -44.78      
O           68.08       5.04        -46.01      
O           70.27       4.55        -40.53      
C           65.87       4.36        -44.45      
C           72.01       6.15        -41.78      
H           71.55541    7.08082     -41.44086   
H           72.93       6.3         -42.29      
H           72.32       5.59        -40.95      
H           65.12       4.6         -43.7       
H           65.65921    3.42549     -44.96995   
H           65.85       5.22        -45.2       
N           67.15       4.41        -43.89      
C           68.86       4.71        -42.56      
C           67.46       4.38        -42.57      
C           73.17       6.59        -46.59      
C           72.21       5.88        -47.21      
S           72.89       6.74        -44.93      
H           70.47       4.62        -46.56      
H           72.28       5.47        -48.24      
C           71.23       5.34        -46.24      
C           71.49       5.71        -44.94      
C           76.59       8.43        -47.21      
C           76.11       8.03        -48.41      
S           75.41       8.09        -45.96      
H           74.4        6.9         -49.2       
H           76.61       8.26        -49.34      
C           74.88       7.32        -48.37      
C           74.37       7.25        -47.07      
C           80.32       9.35        -46.66      
C           79.61       9.81        -45.62      
S           79.23       8.78        -47.92      
H           77.47       9.92        -45.06      
H           80.01       10.09       -44.71      
C           78.2        9.68        -45.8       
C           77.87       8.96        -46.89      
C           84.83       10.38       -45.5       
C           84.0        9.7         -46.33      
N           84.09       10.79       -44.43      
C           82.73       10.68       -44.74      
C           84.01       8.94        -47.59      
O           84.84       8.3         -48.36      
O           81.94       11.02       -43.94      
C           82.16       7.92        -48.97      
C           84.52       10.85       -43.03      
H           84.23864    9.90226     -42.57094   
H           83.98       11.56       -42.36      
H           85.63       10.85       -42.94      
H           81.19       8.22        -49.45      
H           82.19573    6.84097     -48.81994   
H           82.82       8.2         -49.74      
N           82.56       8.7         -47.79      
C           82.62       9.92        -45.92      
C           81.74       9.37        -46.83      
C           88.6        9.42        -45.95      
C           88.56       10.54       -45.14      
S           87.04       9.11        -46.64      
H           86.94       11.84       -44.35      
H           89.41       10.9        -44.57      
C           87.18       11.03       -44.98      
C           86.28       10.29       -45.68      
C           91.39       6.86        -47.07      
C           92.02       7.89        -46.51      
S           89.71       7.09        -47.03      
H           91.5        9.78        -45.41      
H           93.11       8.01        -46.53      
C           91.18       8.85        -45.93      
C           89.84       8.62        -46.24      
C           93.61       4.57        -49.28      
C           92.52       3.81        -48.92      
S           93.58       6.01        -48.39      
H           90.57       4.22        -47.72      
H           92.39       2.75        -49.24      
C           91.57       4.56        -48.08      
C           91.99       5.81        -47.79      
C           96.81       1.52        -51.37      
C           96.33       2.82        -51.05      
N           95.82       0.74        -50.74      
C           94.75       1.51        -50.04      
C           96.52       4.24        -51.38      
O           97.36       4.84        -52.01      
O           93.88       0.99        -49.43      
C           95.23       6.33        -51.31      
C           95.81       -0.64       -50.6       
H           96.02149    -0.87196    -49.55618   
H           96.56       -1.02       -51.27      
H           94.85       -1.0        -50.98      
H           95.0        6.97        -50.47      
H           94.48528    6.37965     -52.10437   
H           96.22       6.79        -51.58      
N           95.49       4.98        -50.86      
C           95.07       2.84        -50.3       
C           94.76       4.15        -50.04      
C           99.97       0.32        -53.56      
C           99.9        1.63        -53.47      
S           98.68       -0.31       -52.57      
H           98.74       3.17        -52.37      
H           100.68      2.22        -53.84      
C           98.89       2.12        -52.6       
C           97.95       1.21        -52.18      
C           101.78      -2.29       -55.58      
C           102.38      -1.12       -55.83      
S           100.53      -2.13       -54.43      
H           102.26      0.96        -55.08      
H           103.07      -0.93       -56.65      
C           101.9       -0.11       -55.05      
C           100.91      -0.47       -54.23      
C           101.52      -4.79       -58.6       
C           101.86      -5.53       -57.54      
S           101.45      -3.09       -58.18      
H           102.24      -5.11       -55.32      
H           102.02      -6.58       -57.64      
C           102.01      -4.72       -56.29      
C           101.91      -3.34       -56.51      
C           102.06      -7.96       -62.24      
C           101.46      -6.81       -61.81      
N           103.01      -8.32       -61.28      
C           102.89      -7.53       -60.13      
C           100.55      -5.77       -62.18      
O           99.93       -5.55       -63.18      
O           103.67      -7.7        -59.21      
C           99.21       -4.12       -60.87      
C           104.19      -9.17       -61.39      
H           105.12588   -8.61127    -61.38302   
H           104.12      -9.83       -62.27      
H           104.13      -9.9        -60.63      
H           99.23       -3.58       -59.98      
H           98.25357    -4.62764    -60.99507   
H           99.3        -3.27       -61.61      
N           100.39      -5.01       -60.98      
C           101.94      -6.53       -60.5       
C           101.35      -5.37       -59.99      
C           101.03      -10.59      -65.09      
C           100.51      -9.42       -65.39      
S           101.83      -10.49      -63.55      
H           100.46      -7.36       -64.56      
H           99.91       -9.21       -66.25      
C           100.83      -8.39       -64.43      
C           101.61      -8.74       -63.41      
C           100.72      -13.62      -67.64      
C           101.78      -13.85      -66.77      
S           99.85       -12.18      -67.19      
H           102.57      -12.81      -64.89      
H           102.45      -14.69      -66.77      
C           101.78      -12.88      -65.69      
C           100.91      -11.86      -65.82      
C           98.54       -15.4       -70.27      
C           99.8        -15.75      -70.41      
S           98.51       -14.1       -69.09      
H           101.72      -15.77      -69.46      
H           100.01      -16.47      -71.21      
C           100.72      -15.34      -69.46      
C           100.18      -14.39      -68.67      
C           96.75       -16.85      -74.41      
C           96.51       -16.43      -73.11      
N           98.1        -16.6       -74.69      
C           98.86       -16.12      -73.49      
C           95.46       -16.29      -72.09      
O           94.28       -16.66      -72.07      
O           100.0       -15.75      -73.56      
C           95.48       -15.74      -69.69      
C           98.75       -16.37      -75.98      
H           99.41879    -17.20071   -76.20528   
H           98.04       -16.13      -76.71      
H           99.4        -15.51      -75.87      
H           95.71       -14.8       -69.13      
H           95.52379    -16.64508   -69.08418   
H           94.44       -15.6       -69.87      
N           96.19       -15.84      -70.93      
C           97.78       -15.96      -72.54      
C           97.5        -15.59      -71.28      
C           94.37       -18.13      -77.28      
C           93.61       -17.55      -76.25      
S           96.05       -18.31      -76.71      
H           94.07       -16.39      -74.49      
H           92.53       -17.4       -76.37      
C           94.44       -17.03      -75.24      
C           95.75       -17.25      -75.36      
C           93.61       -19.01      -81.02      
C           92.5        -19.36      -80.25      
S           94.9        -18.46      -79.99      
H           91.88       -19.15      -78.14      
H           91.59       -19.72      -80.63      
C           92.69       -19.0       -78.89      
C           93.92       -18.59      -78.54      
C           94.8        -19.37      -84.72      
C           93.46       -19.49      -84.68      
S           95.34       -19.22      -83.11      
H           91.76       -19.13      -83.27      
H           92.84       -19.65      -85.61      
C           92.82       -19.15      -83.41      
C           93.79       -19.11      -82.44      
C           95.89       -20.38      -89.22      
C           96.33       -19.78      -88.05      
N           94.57       -20.75      -89.0       
C           94.27       -20.79      -87.63      
C           97.45       -19.11      -87.31      
O           98.58       -18.71      -87.6       
O           93.21       -21.24      -87.21      
C           97.27       -17.57      -85.37      
C           93.41       -20.97      -89.95      
H           92.67837    -20.16385   -89.89581   
H           92.95       -21.94      -90.01      
H           93.68       -20.83      -90.96      
H           97.23       -17.75      -84.29      
H           96.62307    -16.71723   -85.57584   
H           98.23       -17.29      -85.63      
N           96.85       -18.81      -86.04      
C           95.3        -20.02      -87.09      
C           95.64       -19.54      -85.91      
C           97.64       -20.83      -92.69      
C           98.59       -20.4       -91.78      
S           96.15       -21.18      -91.91      
H           98.53       -19.96      -89.54      
H           99.56       -20.11      -91.97      
C           98.01       -20.22      -90.41      
C           96.68       -20.51      -90.38      
C           97.6        -22.23      -96.36      
C           98.61       -21.37      -96.25      
S           96.78       -22.25      -94.86      
H           99.62       -20.14      -94.81      
H           99.3        -21.19      -97.06      
C           98.79       -20.87      -94.97      
C           97.86       -21.24      -94.05      
C           95.48       -24.54      -98.81      
C           96.74       -24.21      -99.38      
S           95.41       -23.62      -97.31      
H           98.72       -23.18      -98.72      
H           97.06       -24.66      -100.31     
C           97.66       -23.47      -98.55      
C           97.08       -23.08      -97.41      
H           58.25       25.72       2.76        
H           94.73       -25.24      -99.11      
