392

C           38.88       29.54       20.87       
C           37.68       29.28       21.37       
N           39.45       30.5        21.62       
C           38.51       30.97       22.57       
C           36.41       28.47       21.26       
O           36.14       27.57       20.49       
O           38.79       31.88       23.32       
C           34.31       28.31       22.51       
C           40.87       30.93       21.75       
H           41.46703    30.16033    22.23914    
H           40.96       31.93       22.18       
H           41.21       31.14       20.74       
H           33.4        28.84       22.82       
H           34.51513    27.5673     23.28099    
H           34.01       27.87       21.6        
N           35.49       29.06       22.21       
C           37.32       30.2        22.37       
C           36.07       30.03       22.88       
C           40.56       27.33       18.11       
C           39.92       26.49       19.07       
S           40.58       28.98       18.65       
H           38.65       26.89       20.82       
H           39.81       25.45       19.03       
C           39.35       27.33       20.1        
C           39.59       28.65       20.04       
C           42.2        25.94       14.89       
C           41.83       27.22       14.62       
S           41.65       25.41       16.44       
H           41.0        28.87       15.75       
H           42.25       27.73       13.79       
C           41.21       27.8        15.72       
C           41.13       27.01       16.87       
C           44.69       23.21       13.47       
C           44.24       23.91       12.44       
S           43.86       23.77       14.87       
H           42.98       25.7        12.0        
H           44.64       23.72       11.47       
C           43.3        24.94       12.77       
C           42.95       25.02       14.09       
C           46.88       19.51       11.37       
C           46.66       20.34       12.51       
N           46.11       20.15       10.37       
C           45.33       21.17       10.88       
C           47.04       20.43       13.89       
O           47.75       19.73       14.65       
O           44.48       21.81       10.24       
C           46.63       22.0        15.77       
C           46.59       20.38       8.99        
H           47.56607    20.86086    9.05459     
H           45.9        21.0        8.53        
H           46.69       19.42       8.47        
H           45.85       22.7        16.18       
H           47.63592    22.40681    15.87355    
H           46.55       21.04       16.37       
N           46.32       21.51       14.44       
C           45.67       21.29       12.26       
C           45.47       22.02       13.4        
C           48.78       16.17       10.66       
C           49.48       16.79       11.68       
S           47.41       17.09       10.09       
H           49.12       18.61       12.8        
H           50.44       16.4        12.15       
C           48.81       17.99       11.99       
C           47.78       18.37       11.17       
C           50.2        12.89       9.18        
C           49.0        13.21       8.46        
S           50.66       14.27       10.17       
H           47.55       14.81       8.43        
H           48.52       12.53       7.81        
C           48.46       14.39       8.85        
C           49.1        14.98       9.9         
C           53.0        10.24       9.54        
C           51.85       9.57        8.99        
S           52.52       11.87       10.02       
H           49.83       10.19       8.31        
H           51.9        8.52        8.71        
C           50.79       10.5        8.78        
C           51.03       11.76       9.18        
C           55.43       6.59        11.49       
C           55.42       7.87        11.1        
N           54.14       6.14        11.43       
C           53.22       7.04        10.89       
C           56.32       9.06        11.0        
O           57.45       9.32        11.36       
O           52.03       6.81        10.75       
C           56.06       11.27       9.95        
C           53.56       5.05        12.2        
H           53.23317    5.43494     13.16597    
H           54.27       4.27        12.33       
H           52.74       4.61        11.73       
H           55.47       12.15       10.32       
H           56.08173    11.35691    8.86369     
H           57.02       11.33       10.43       
N           55.48       10.02       10.32       
C           54.1        8.22        10.68       
C           54.13       9.51        10.16       
C           58.6        4.52        12.61       
C           58.61       5.68        13.3        
S           57.09       4.35        11.68       
H           57.46       7.62        13.4        
H           59.43       5.99        13.93       
C           57.52       6.57        12.98       
C           56.59       6.01        12.14       
C           60.89       1.37        12.04       
C           61.37       1.98        13.15       
S           59.54       2.27        11.45       
H           60.93       3.73        14.33       
H           62.3        1.69        13.63       
C           60.67       3.14        13.47       
C           59.6        3.45        12.67       
C           62.77       -1.35       9.95        
C           61.49       -1.74       10.05       
S           63.0        -0.03       11.08       
H           59.54       -0.86       10.71       
H           61.04       -2.66       9.6         
C           60.63       -0.78       10.75       
C           61.34       0.2         11.41       
C           65.06       -5.14       8.24        
C           65.09       -3.8        8.6         
N           63.94       -5.73       8.78        
C           63.05       -4.66       9.36        
C           65.83       -2.55       8.39        
O           66.97       -2.25       7.91        
O           61.92       -4.85       9.9         
C           65.46       -0.12       8.9         
C           63.7        -7.11       9.22        
H           63.70692    -7.19995    10.30626    
H           64.46       -7.79       8.85        
H           62.69       -7.45       8.89        
H           65.08       0.43        9.68        
H           65.38351    0.26939     7.8848      
H           66.54       -0.18       9.17        
N           65.05       -1.54       9.01        
C           63.85       -3.4        9.16        
C           63.88       -2.05       9.42        
C           68.5        -6.89       7.3         
C           67.49       -7.5        6.67        
S           67.86       -5.53       8.19        
H           65.33       -7.48       6.6         
H           67.64       -8.33       5.98        
C           66.17       -7.04       7.04        
C           66.17       -5.85       7.75        
C           71.88       -8.7        6.8         
C           72.11       -7.55       7.49        
S           70.2        -8.74       6.33        
H           71.12       -5.96       8.61        
H           73.11       -7.4        7.79        
C           70.99       -6.8        7.89        
C           69.87       -7.29       7.25        
C           73.9        -11.97      6.14        
C           74.81       -10.93      6.22        
S           72.39       -11.34      6.48        
H           74.82       -8.78       6.49        
H           75.89       -11.01      6.18        
C           74.21       -9.64       6.43        
C           72.85       -9.67       6.5         
C           76.83       -15.78      5.96        
C           75.53       -15.24      5.7         
N           77.56       -14.78      6.63        
C           76.71       -13.61      6.74        
C           74.25       -15.49      5.14        
O           73.8        -16.51      4.64        
O           77.03       -12.7       7.46        
C           72.24       -14.17      4.39        
C           78.98       -14.52      6.77        
H           79.34946    -13.80896   6.03107     
H           79.59       -15.4       6.78        
H           79.27       -14.06      7.69        
H           71.89       -13.16      4.28        
H           71.4117     -14.69459   4.86627     
H           72.39       -14.63      3.41        
N           73.49       -14.34      5.25        
C           75.45       -13.89      6.16        
C           74.18       -13.38      5.97        
C           78.19       -19.49      5.59        
C           77.26       -19.26      4.61        
S           78.62       -17.95      6.38        
H           75.91       -17.63      3.99        
H           76.74       -20.16      4.2         
C           76.77       -17.95      4.61        
C           77.38       -17.05      5.49        
C           79.67       -22.49      7.47        
C           79.56       -22.84      6.19        
S           79.11       -20.89      7.73        
H           79.01       -22.04      4.3         
H           79.78       -23.78      5.8         
C           79.15       -21.83      5.33        
C           78.84       -20.67      5.98        
C           81.53       -23.65      10.72       
C           81.36       -24.71      9.95        
S           80.63       -22.34      10.07       
H           80.78       -25.15      7.85        
H           81.77       -25.66      10.31       
C           80.68       -24.46      8.7         
C           80.17       -23.19      8.6         
C           83.72       -25.38      14.64       
C           83.26       -24.27      13.95       
N           83.29       -26.55      14.06       
C           82.53       -26.18      12.89       
C           83.33       -22.83      13.94       
O           83.82       -22.0       14.69       
O           82.0        -27.04      12.16       
C           82.95       -21.2       12.08       
C           83.56       -27.92      14.46       
H           84.28972    -28.35647   13.77802    
H           82.61       -28.43      14.55       
H           84.05       -28.05      15.36       
H           81.97       -20.71      11.74       
H           83.64627    -21.17869   11.24164    
H           83.39       -20.48      12.85       
N           82.7        -22.56      12.6        
C           82.61       -24.76      12.79       
C           82.23       -23.67      11.99       
C           85.98       -25.64      17.82       
C           85.13       -24.55      17.92       
S           85.64       -26.42      16.37       
H           83.52       -23.55      16.76       
H           85.16       -23.81      18.75       
C           84.18       -24.39      16.85       
C           84.37       -25.37      15.9        
C           88.97       -27.55      19.43       
C           88.71       -26.49      20.22       
S           87.77       -27.64      18.14       
H           87.43       -24.64      20.17       
H           89.25       -26.31      21.15       
C           87.75       -25.6       19.72       
C           87.07       -26.12      18.67       
C           90.94       -31.02      19.69       
C           91.12       -30.27      20.8        
S           89.89       -30.1       18.65       
H           90.58       -28.36      21.7        
H           91.84       -30.52      21.51       
C           90.41       -29.01      20.84       
C           89.71       -28.71      19.73       
C           93.47       -35.05      20.61       
C           92.63       -34.38      19.76       
N           93.43       -34.26      21.8        
C           92.76       -32.99      21.66       
C           92.03       -34.41      18.42       
O           92.09       -35.21      17.49       
O           92.65       -32.24      22.59       
C           90.6        -33.07      17.02       
C           94.36       -34.41      22.93       
H           95.15765    -33.66832   22.97198    
H           94.77       -35.43      22.95       
H           93.82       -34.33      23.88       
H           90.33       -32.06      16.64       
H           89.72792    -33.71654   16.92227    
H           91.37       -33.45      16.27       
N           91.27       -33.2       18.3        
C           92.21       -33.07      20.32       
C           91.44       -32.31      19.4        
C           94.4        -38.82      20.57       
C           94.44       -38.39      19.27       
S           94.46       -37.49      21.62       
H           93.85       -36.61      18.21       
H           94.55       -39.08      18.43       
C           93.99       -37.04      19.17       
C           94.0        -36.36      20.4        
C           95.66       -42.37      21.59       
C           94.83       -41.84      22.56       
S           95.82       -41.17      20.36       
H           93.94       -39.85      22.97       
H           94.73       -42.39      23.55       
C           94.29       -40.56      22.25       
C           94.76       -40.09      21.1        
C           97.49       -45.7       22.11       
C           97.89       -45.23      20.89       
S           96.43       -44.55      22.95       
H           97.58       -43.28      19.66       
H           98.71       -45.79      20.47       
C           97.27       -43.95      20.55       
C           96.45       -43.52      21.55       
C           99.0        -50.23      21.94       
C           98.48       -49.17      22.64       
N           99.0        -49.77      20.62       
C           98.84       -48.36      20.54       
C           98.22       -48.81      23.98       
O           98.15       -49.36      25.06       
O           99.06       -47.85      19.42       
C           97.98       -46.57      25.1        
C           98.62       -50.49      19.43       
H           97.53577    -50.5963    19.46543    
H           99.07       -51.43      19.46       
H           99.06       -50.08      18.49       
H           97.13       -45.84      25.09       
H           98.9757     -46.19034   25.32923    
H           97.58       -47.16      25.92       
N           97.97       -47.37      23.9        
C           98.35       -47.99      21.84       
C           97.78       -47.0       22.57       
C           101.17      -53.46      22.75       
C           100.93      -52.79      23.87       
S           100.46      -52.64      21.41       
H           99.63       -51.06      24.55       
H           101.32      -53.1       24.82       
C           99.99       -51.66      23.7        
C           99.62       -51.46      22.39       
C           103.57      -56.18      21.54       
C           103.91      -55.89      22.82       
S           102.23      -55.28      20.97       
H           103.19      -54.5       24.35       
H           104.84      -56.34      23.24       
C           102.98      -54.95      23.35       
C           102.0       -54.6       22.52       
C           106.17      -58.0       19.5        
C           104.97      -58.4       18.95       
S           106.03      -56.75      20.66       
H           102.82      -57.9       19.3        
H           104.9       -59.05      18.16       
C           103.87      -57.72      19.54       
C           104.3       -56.84      20.55       
C           110.9       -58.9       19.33       
C           109.71      -58.72      18.7        
N           110.71      -58.81      20.68       
C           109.32      -58.5       20.94       
C           109.12      -58.69      17.38       
O           109.57      -58.93      16.29       
O           108.92      -58.36      22.09       
C           106.85      -57.84      16.54       
C           111.64      -58.42      21.77       
H           111.87038   -57.36168   21.64761    
H           111.14      -58.45      22.77       
H           112.59      -59.0       21.7        
H           106.17      -57.0       16.8        
H           106.43819   -58.60081   15.87691    
H           107.5       -57.2       15.92       
N           107.73      -58.38      17.61       
C           108.66      -58.51      19.65       
C           107.43      -58.44      18.96       
C           114.12      -58.19      17.23       
C           114.37      -59.18      18.15       
S           112.43      -57.77      17.33       
H           113.33      -60.07      19.91       
H           115.34      -59.67      18.22       
C           113.3       -59.34      19.09       
C           112.18      -58.75      18.72       
C           115.88      -56.3       14.35       
C           116.67      -57.34      14.69       
S           114.46      -56.39      15.27       
H           116.84      -59.08      16.12       
H           117.57      -57.59      14.15       
C           116.27      -58.19      15.79       
C           115.02      -57.7       16.2        
C           116.54      -53.95      11.17       
C           115.88      -53.18      12.19       
S           116.77      -55.62      11.77       
H           115.15      -53.41      14.2        
H           115.54      -52.17      11.96       
C           115.61      -53.92      13.35       
C           116.09      -55.26      13.35       
C           115.39      -51.69      7.1         
C           116.27      -52.44      7.83        
N           114.42      -51.25      7.99        
C           114.62      -51.83      9.27        
C           117.43      -53.36      7.63        
O           118.08      -53.63      6.66        
O           113.84      -51.57      10.23       
C           118.84      -54.8       9.22        
C           113.56      -50.07      7.72        
H           113.79177   -49.23422   8.38019     
H           112.54      -50.31      7.65        
H           113.84      -49.73      6.71        
H           118.63      -55.51      10.0        
H           119.69353   -54.1805    9.49533     
H           118.97      -55.31      8.26        
N           117.62      -54.02      8.95        
C           115.77      -52.66      9.15        
C           116.65      -53.56      9.8         
C           115.46      -50.92      3.31        
C           116.75      -50.93      3.77        
S           114.3       -51.28      4.51        
H           117.78      -51.47      5.67        
H           117.62      -50.62      3.22        
C           116.81      -51.31      5.17        
C           115.53      -51.38      5.73        
C           113.81      -50.1       -0.13       
C           115.11      -50.27      -0.36       
S           113.38      -50.43      1.56        
H           116.94      -50.76      0.79        
H           115.65      -50.18      -1.31       
C           115.84      -50.67      0.78        
C           115.05      -50.72      1.93        
C           110.67      -49.82      -2.5        
C           111.7       -49.4       -3.19       
S           111.17      -50.43      -1.01       
H           113.86      -49.0       -2.7        
H           111.51      -48.95      -4.18       
C           112.89      -49.37      -2.4        
C           112.78      -49.84      -1.1        
H           35.71       30.55       23.77       
H           109.62      -49.72      -2.76       
