392

C           53.16       20.25       29.01       
C           54.48       19.8        29.37       
N           53.02       21.44       29.67       
C           54.18       21.79       30.49       
C           55.35       18.65       29.26       
O           55.17       17.5        28.86       
O           54.25       22.81       31.11       
C           57.52       18.08       30.28       
C           51.85       22.3        29.67       
H           52.04404    23.20089    29.08789    
H           51.49       22.46       30.69       
H           50.97       21.76       29.28       
H           57.72       18.05       31.3        
H           58.4103     18.35557    29.71473    
H           57.13       17.06       30.14       
N           56.46       19.01       30.03       
C           55.04       20.71       30.3        
C           56.2        20.2        30.69       
C           50.56       18.55       26.57       
C           51.82       18.07       26.34       
S           50.7        19.86       27.66       
H           53.83       18.46       27.03       
H           52.11       17.41       25.53       
C           52.83       18.71       27.11       
C           52.33       19.66       27.97       
C           47.57       17.87       24.22       
C           47.19       18.86       25.05       
S           49.19       17.39       24.58       
H           48.08       19.92       26.82       
H           46.26       19.45       24.9        
C           48.13       19.08       26.1        
C           49.29       18.36       25.98       
C           46.12       17.23       20.7        
C           46.65       16.09       21.17       
S           46.12       18.47       21.92       
H           47.45       15.34       23.03       
H           46.58       15.18       20.67       
C           47.12       16.23       22.51       
C           46.99       17.45       23.0        
C           45.93       16.09       15.91       
C           45.48       16.84       17.0        
N           46.71       15.09       16.51       
C           46.94       15.34       17.92       
C           44.65       18.02       17.29       
O           43.93       18.71       16.57       
O           47.65       14.63       18.57       
C           43.65       18.81       19.52       
C           47.15       13.72       16.07       
H           46.37244    12.97124    16.22119    
H           48.07       13.46       16.57       
H           47.39       13.68       14.98       
H           43.91       19.48       20.3        
H           42.9109     18.08511    19.86112    
H           43.17       19.42       18.74       
N           44.72       18.16       18.74       
C           46.11       16.5        18.21       
C           45.72       17.36       19.28       
C           46.0        16.32       12.01       
C           45.27       17.39       12.46       
S           46.64       15.33       13.28       
H           44.65       18.12       14.47       
H           44.85       18.15       11.82       
C           45.23       17.37       13.9        
C           45.87       16.3        14.52       
C           47.0        14.54       8.78        
C           46.11       15.55       8.39        
S           47.45       14.69       10.44       
H           44.78       16.96       9.58        
H           45.69       15.66       7.37        
C           45.6        16.26       9.56        
C           46.29       15.97       10.69       
C           49.03       11.53       7.38        
C           47.95       11.7        6.57        
S           49.06       12.81       8.53        
H           46.25       13.19       6.37        
H           47.7        11.0        5.8         
C           47.13       12.83       6.91        
C           47.56       13.44       8.04        
C           50.92       7.41        5.68        
C           50.95       8.45        6.58        
N           49.76       7.54        4.85        
C           49.0        8.65        5.32        
C           51.69       8.94        7.72        
O           52.76       8.63        8.17        
O           47.99       8.92        4.72        
C           51.65       10.97       9.14        
C           49.29       6.47        3.99        
H           48.41779    5.9767      4.41896     
H           50.08       5.85        3.83        
H           49.11       6.9         2.99        
H           50.84       11.52       9.61        
H           52.44684    11.66291    8.86977     
H           51.93       10.18       9.9         
N           51.02       10.16       8.05        
C           49.8        9.31        6.41        
C           49.92       10.4        7.28        
C           53.64       4.44        5.76        
C           54.26       5.61        5.93        
S           51.91       4.69        5.69        
H           53.56       7.75        6.15        
H           55.32       5.63        6.05        
C           53.34       6.75        5.93        
C           52.01       6.42        5.69        
C           55.66       1.13        5.72        
C           54.74       0.98        4.71        
S           55.64       2.69        6.45        
H           53.04       2.15        4.0         
H           54.63       0.12        4.08        
C           53.84       2.08        4.73        
C           54.2        3.14        5.58        
C           57.93       -2.02       6.26        
C           58.57       -0.94       6.7         
S           56.41       -1.5        5.63        
H           58.2        1.29        7.03        
H           59.52       -0.97       7.18        
C           57.84       0.3         6.62        
C           56.67       0.14        6.06        
C           61.28       -5.59       6.28        
C           59.97       -5.22       6.14        
N           61.91       -4.56       6.9         
C           61.14       -3.39       6.88        
C           58.7        -5.66       5.59        
O           58.29       -6.7        5.13        
O           61.54       -2.32       7.26        
C           56.35       -4.81       5.65        
C           63.11       -4.56       7.69        
H           63.03502    -4.13741    8.69195     
H           63.89       -4.04       7.11        
H           63.58       -5.5        7.78        
H           55.91       -4.02       5.07        
H           55.87816    -4.88864    6.62943     
H           56.15       -5.7        4.99        
N           57.83       -4.49       5.73        
C           59.76       -3.83       6.49        
C           58.5        -3.34       6.22        
C           63.44       -8.71       5.09        
C           62.14       -8.99       5.03        
S           63.63       -7.22       5.96        
H           60.24       -7.9        5.26        
H           61.7        -10.0       4.82        
C           61.27       -7.87       5.37        
C           61.94       -6.84       5.97        
C           66.94       -10.46      4.91        
C           66.11       -11.11      3.99        
S           66.1        -9.08       5.63        
H           63.93       -11.03      3.5         
H           66.47       -11.87      3.35        
C           64.75       -10.63      4.05        
C           64.58       -9.52       4.84        
C           70.6        -11.65      5.85        
C           70.31       -10.45      6.42        
S           69.32       -12.02      4.7         
H           68.54       -9.02       6.46        
H           70.86       -10.07      7.26        
C           69.04       -9.92       6.07        
C           68.3        -10.72      5.26        
C           74.55       -12.73      8.16        
C           73.55       -13.19      7.31        
N           74.42       -11.35      8.15        
C           73.4        -10.89      7.3         
C           72.87       -14.41      6.79        
O           73.12       -15.62      6.92        
O           73.3        -9.74       7.01        
C           70.58       -14.86      5.81        
C           74.85       -10.44      9.2         
H           73.99761    -10.22517   9.84449     
H           75.43       -9.6        8.7         
H           75.61       -10.88      9.89        
H           69.94       -14.58      4.99        
H           70.00658    -15.13609   6.69491     
H           71.03       -15.78      5.41        
N           71.7        -13.92      6.09        
C           72.75       -12.09      6.87        
C           71.73       -12.5       6.08        
C           77.28       -14.78      10.24       
C           76.12       -15.52      10.05       
S           77.05       -13.16      9.61        
H           74.12       -15.22      9.04        
H           76.01       -16.59      10.31       
C           75.1        -14.83      9.31        
C           75.39       -13.47      9.11        
C           80.4        -17.03      10.93       
C           80.76       -15.7       11.27       
S           78.71       -17.12      10.5        
H           79.78       -13.72      11.26       
H           81.72       -15.45      11.71       
C           79.7        -14.75      11.02       
C           78.54       -15.37      10.66       
C           81.7        -20.77      10.91       
C           82.51       -20.02      11.72       
S           80.41       -19.79      10.21       
H           82.66       -17.82      12.21       
H           83.37       -20.42      12.25       
C           82.14       -18.64      11.72       
C           81.02       -18.34      11.01       
C           83.88       -25.04      11.46       
C           83.0        -24.2       10.86       
N           84.41       -24.3       12.5        
C           83.87       -22.98      12.48       
C           82.11       -24.25      9.75        
O           81.9        -25.12      8.84        
O           84.14       -22.17      13.31       
C           80.34       -22.76      8.84        
C           85.53       -24.56      13.34       
H           86.32397    -23.85578   13.09145    
H           86.04       -25.48      13.01       
H           85.34       -24.59      14.39       
H           80.3        -21.7       8.56        
H           79.36323    -23.07601   9.20629     
H           80.71       -23.12      7.9         
N           81.37       -23.01      9.77        
C           82.88       -22.9       11.4        
C           81.91       -22.17      10.73       
C           84.83       -28.77      10.39       
C           83.58       -28.49      10.05       
S           85.43       -27.33      11.25       
H           81.94       -27.0       10.25       
H           82.96       -29.14      9.45        
C           82.99       -27.23      10.54       
C           83.93       -26.46      11.15       
C           87.68       -31.49      10.12       
C           86.7        -31.92      9.2         
S           87.15       -30.17      11.03       
H           84.7        -31.07      8.59        
H           86.81       -32.74      8.49        
C           85.59       -30.94      9.16        
C           85.73       -29.89      10.07       
C           90.61       -32.97      12.15       
C           90.32       -33.83      11.15       
S           89.74       -31.54      11.89       
H           88.9        -34.06      9.43        
H           90.68       -34.85      11.17       
C           89.32       -33.41      10.28       
C           88.91       -32.11      10.5        
C           92.26       -33.26      16.58       
C           92.47       -33.48      15.25       
N           90.91       -33.01      16.74       
C           90.29       -32.76      15.4        
C           93.46       -33.9       14.36       
O           94.68       -34.2       14.48       
O           89.12       -32.46      15.24       
C           93.85       -33.47      11.9        
C           89.99       -33.46      17.83       
H           89.68969    -34.48665   17.62048    
H           89.03       -32.9       17.92       
H           90.41       -33.43      18.8        
H           93.7        -32.46      11.53       
H           93.82855    -34.14203   11.04209    
H           94.83       -33.47      12.34       
N           92.92       -33.67      13.03       
C           91.33       -33.07      14.49       
C           91.61       -33.27      13.18       
C           94.32       -33.59      19.92       
C           94.77       -34.39      18.93       
S           92.95       -32.71      19.19       
H           94.39       -34.99      16.83       
H           95.61       -34.97      19.15       
C           94.18       -34.32      17.6        
C           93.08       -33.54      17.66       
C           95.49       -33.9       23.64       
C           94.84       -32.76      23.47       
S           95.59       -34.75      22.1        
H           93.86       -31.57      21.95       
H           94.73       -31.93      24.26       
C           94.42       -32.41      22.17       
C           94.67       -33.46      21.34       
C           96.42       -35.21      27.16       
C           97.31       -35.76      26.23       
S           95.33       -34.13      26.36       
H           97.4        -35.88      24.03       
H           98.14       -36.41      26.58       
C           96.88       -35.5       24.9        
C           95.95       -34.54      24.83       
C           96.59       -38.07      30.99       
C           96.25       -36.87      30.42       
N           97.07       -38.8       29.92       
C           97.27       -38.0       28.71       
C           95.61       -35.66      30.77       
O           95.15       -35.21      31.78       
O           97.73       -38.36      27.68       
C           95.25       -33.5       29.59       
C           97.06       -40.25      29.79       
H           96.53889    -40.60436   28.90063    
H           96.48       -40.76      30.59       
H           98.07       -40.56      29.88       
H           94.64       -33.15      28.72       
H           96.06058    -32.80318   29.80331    
H           94.73       -33.35      30.49       
N           95.68       -34.87      29.54       
C           96.52       -36.78      29.0        
C           96.14       -35.61      28.47       
C           96.7        -39.5       34.63       
C           96.48       -38.16      34.71       
S           96.91       -39.96      33.04       
H           96.34       -36.41      33.26       
H           96.43       -37.57      35.64       
C           96.44       -37.47      33.42       
C           96.58       -38.36      32.4        
C           97.28       -42.63      36.86       
C           96.6        -41.69      37.59       
S           97.54       -42.04      35.26       
H           95.66       -39.74      37.26       
H           96.23       -41.82      38.61       
C           96.3        -40.51      36.85       
C           96.85       -40.48      35.6        
C           98.83       -46.22      37.1        
C           98.04       -45.98      38.22       
S           98.96       -44.66      36.27       
H           96.77       -44.3       39.07       
H           97.77       -46.74      38.96       
C           97.37       -44.73      38.26       
C           97.73       -43.93      37.23       
C           100.4       -50.8       37.58       
C           100.54      -49.56      37.1        
N           99.18       -50.72      38.21       
C           98.55       -49.44      38.2        
C           101.4       -48.82      36.2        
O           102.44      -49.07      35.69       
O           97.41       -49.19      38.58       
C           101.36      -46.57      35.13       
C           98.25       -51.84      38.3        
H           97.94319    -52.13286   39.30409    
H           97.32       -51.48      37.8        
H           98.61       -52.62      37.64       
H           101.45      -45.75      35.83       
H           100.81137   -46.26362   34.23936    
H           102.32      -46.99      34.88       
N           100.7       -47.58      35.94       
C           99.42       -48.67      37.42       
C           99.6        -47.47      36.77       
C           102.44      -53.96      37.07       
C           103.29      -52.88      37.23       
S           100.82      -53.49      37.33       
H           103.12      -50.77      37.7        
H           104.35      -52.86      37.07       
C           102.65      -51.7       37.57       
C           101.31      -51.84      37.6        
C           104.14      -57.14      35.79       
C           102.8       -57.3       35.69       
S           104.58      -55.56      36.35       
H           101.05      -56.26      36.3        
H           102.38      -58.17      35.35       
C           102.08      -56.28      36.26       
C           102.85      -55.28      36.63       
C           107.31      -58.69      34.11       
C           106.18      -59.47      33.94       
S           106.79      -57.29      34.96       
H           104.07      -59.69      34.61       
H           106.19      -60.27      33.27       
C           105.02      -59.13      34.63       
C           105.18      -57.9       35.18       
C           110.22      -60.16      30.59       
C           110.09      -59.53      31.81       
N           109.02      -60.69      30.24       
C           108.03      -60.39      31.23       
C           110.83      -58.93      32.87       
O           111.99      -58.88      33.02       
O           106.88      -60.77      31.14       
C           110.14      -57.79      35.08       
C           108.76      -61.92      29.51       
H           108.78064   -62.75946   30.20496    
H           109.52      -62.01      28.76       
H           107.84      -61.81      28.93       
H           109.24      -57.65      35.67       
H           110.65412   -56.83924   34.93915    
H           110.71      -58.48      35.54       
N           109.81      -58.47      33.8        
C           108.74      -59.57      32.22       
C           108.52      -58.83      33.38       
C           113.33      -60.91      28.05       
C           113.76      -60.74      29.37       
S           111.61      -60.74      28.13       
H           112.91      -60.4       31.38       
H           114.79      -60.71      29.66       
C           112.69      -60.57      30.34       
C           111.45      -60.55      29.84       
C           114.59      -61.03      24.38       
C           115.71      -61.12      25.17       
S           113.19      -60.94      25.34       
H           116.13      -61.23      27.4        
H           116.74      -61.27      24.84       
C           115.42      -61.19      26.59       
C           114.08      -61.05      26.85       
C           113.41      -61.09      20.65       
C           114.8       -61.3       20.68       
S           112.88      -60.67      22.31       
H           116.36      -61.36      22.25       
H           115.39      -61.55      19.73       
C           115.32      -61.3       22.01       
C           114.42      -61.08      22.96       
H           56.88       20.78       31.21       
H           112.74      -61.43      19.87       
