392

C           40.92       1.35        0.6         
C           40.38       2.58        0.49        
N           42.25       1.5         0.56        
C           42.62       2.85        0.68        
C           39.15       3.34        0.38        
O           38.03       2.93        0.34        
O           43.89       3.17        0.69        
C           38.74       5.86        0.25        
C           43.25       0.6         0.03        
H           43.50356    0.90839     -0.98425    
H           42.89       -0.39       -0.15       
H           44.05       0.48        0.73        
H           38.86       6.29        -0.71       
H           38.68357    6.66417     0.98363     
H           37.72       5.42        0.24        
N           39.66       4.74        0.6         
C           41.44       3.54        0.68        
C           41.01       4.83        0.71        
C           39.4        -2.28       0.31        
C           38.5        -1.4        -0.22       
S           40.71       -1.46       1.02        
H           38.5        0.79        -0.67       
H           37.65       -1.76       -0.73       
C           38.98       -0.02       -0.15       
C           40.2        0.14        0.4         
C           38.69       -5.97       -0.7        
C           39.46       -5.97       0.41        
S           38.3        -4.38       -1.08       
H           40.51       -4.41       1.66        
H           39.74       -6.88       0.81        
C           39.83       -4.68       0.9         
C           39.3        -3.73       0.18        
C           38.31       -9.12       -2.97       
C           37.68       -8.08       -3.59       
S           38.81       -8.59       -1.36       
H           37.13       -6.07       -3.16       
H           37.28       -8.18       -4.57       
C           37.61       -6.94       -2.79       
C           38.27       -7.0        -1.58       
C           37.53       -13.03      -5.79       
C           38.29       -12.31      -4.92       
N           36.55       -12.07      -6.18       
C           36.59       -10.95      -5.28       
C           39.52       -12.4       -4.19       
O           40.4        -13.2       -4.12       
O           35.76       -10.07      -5.36       
C           40.89       -10.79      -2.7        
C           35.93       -11.81      -7.42       
H           36.46896    -11.05121   -7.98732    
H           34.83       -11.5       -7.31       
H           35.94       -12.72      -8.06       
H           40.54       -10.32      -1.71       
H           41.42738    -10.0921    -3.34207    
H           41.41       -11.69      -2.46       
N           39.64       -11.2       -3.37       
C           37.7        -11.13      -4.42       
C           38.45       -10.48      -3.49       
C           38.02       -16.42      -7.89       
C           39.22       -15.91      -7.53       
S           36.84       -15.45      -7.04       
H           40.07       -14.25      -6.27       
H           40.09       -16.39      -7.81       
C           39.22       -14.76      -6.68       
C           37.95       -14.23      -6.51       
C           37.88       -19.37      -10.41      
C           36.53       -19.17      -10.01      
S           39.0        -18.3       -9.66       
H           35.73       -17.84      -8.36       
H           35.64       -19.66      -10.28      
C           36.59       -18.22      -8.91       
C           37.76       -17.55      -8.75       
C           40.04       -21.51      -12.93      
C           38.81       -22.14      -12.8       
S           40.05       -20.21      -11.82      
H           36.9        -21.79      -11.65      
H           38.6        -23.05      -13.29      
C           37.87       -21.43      -11.88      
C           38.38       -20.29      -11.39      
C           42.51       -24.51      -15.46      
C           42.46       -23.36      -14.86      
N           41.4        -25.28      -15.14      
C           40.54       -24.52      -14.31      
C           43.25       -22.18      -14.74      
O           44.32       -21.77      -15.18      
O           39.56       -25.13      -13.78      
C           42.85       -19.89      -13.94      
C           40.75       -26.45      -15.83      
H           39.97849    -26.11425   -16.52293   
H           40.34       -27.16      -15.15      
H           41.42       -26.92      -16.52      
H           42.32       -19.36      -13.2       
H           42.66463    -19.26973   -14.81693   
H           43.92       -20.0       -13.64      
N           42.37       -21.3       -14.03      
C           41.26       -23.23      -14.14      
C           41.26       -22.02      -13.6       
C           45.34       -26.57      -17.19      
C           45.54       -25.29      -17.53      
S           43.96       -26.77      -16.18      
H           44.53       -23.35      -17.13      
H           46.38       -24.99      -18.06      
C           44.55       -24.42      -16.91      
C           43.48       -25.07      -16.3       
C           47.34       -29.85      -17.61      
C           47.98       -28.88      -18.32      
S           45.92       -29.22      -16.81      
H           47.74       -26.75      -18.73      
H           48.79       -29.1       -19.01      
C           47.42       -27.61      -18.16      
C           46.3        -27.6       -17.41      
C           48.38       -33.67      -17.62      
C           47.83       -33.4       -16.43      
S           48.33       -32.21      -18.6       
H           46.78       -31.75      -15.42      
H           47.86       -34.16      -15.66      
C           47.3        -32.04      -16.34      
C           47.58       -31.26      -17.44      
C           50.87       -37.75      -17.05      
C           50.19       -36.89      -17.88      
N           50.61       -37.34      -15.72      
C           49.75       -36.21      -15.73      
C           49.77       -36.66      -19.24      
O           50.02       -37.17      -20.25      
O           49.6        -35.48      -14.73      
C           48.34       -35.0       -20.44      
C           50.62       -38.26      -14.55      
H           49.63349    -38.41502   -14.11312   
H           51.37       -38.01      -13.82      
H           51.04       -39.28      -14.83      
H           48.13       -33.95      -20.51      
H           47.40059    -35.53981   -20.55918   
H           49.01       -35.3       -21.18      
N           49.09       -35.36      -19.25      
C           49.58       -35.87      -17.09      
C           49.12       -34.89      -17.96      
C           53.72       -40.21      -17.9       
C           52.75       -40.25      -18.87      
S           53.17       -39.26      -16.59      
H           50.83       -39.26      -19.37      
H           52.95       -40.59      -19.9       
C           51.63       -39.42      -18.66      
C           51.68       -38.88      -17.38      
C           57.3        -41.51      -18.91      
C           57.42       -41.18      -17.64      
S           55.63       -41.38      -19.44      
H           56.1        -40.22      -16.07      
H           58.31       -41.25      -17.04      
C           56.21       -40.57      -17.12      
C           55.11       -40.6       -17.97      
C           60.64       -42.26      -20.8       
C           59.63       -42.11      -21.72      
S           60.02       -41.99      -19.23      
H           57.5        -41.65      -21.82      
H           59.95       -42.27      -22.73      
C           58.35       -41.78      -21.18      
C           58.36       -41.74      -19.83      
C           63.97       -44.96      -23.1       
C           63.65       -44.06      -22.08      
N           62.77       -45.11      -23.77      
C           61.64       -44.41      -23.11      
C           64.25       -43.32      -20.99      
O           65.32       -43.04      -20.68      
O           60.55       -44.51      -23.56      
C           63.42       -41.73      -19.33      
C           62.65       -45.58      -25.19      
H           62.31296    -44.78656   -25.85705   
H           62.02       -46.44      -25.28      
H           63.57       -45.99      -25.6       
H           62.61       -41.72      -18.71      
H           63.67273    -40.71187   -19.62605   
H           64.29       -42.12      -18.85      
N           63.12       -42.58      -20.46      
C           62.23       -43.73      -22.05      
C           61.92       -42.89      -21.06      
C           67.05       -47.08      -23.96      
C           67.39       -46.2       -23.01      
S           65.47       -46.85      -24.47      
H           66.44       -44.73      -21.89      
H           68.26       -46.24      -22.4       
C           66.38       -45.38      -22.69      
C           65.2        -45.59      -23.4       
C           69.46       -50.14      -23.98      
C           68.68       -50.19      -25.07      
S           69.02       -48.74      -23.08      
H           67.15       -48.91      -26.1       
H           68.78       -50.97      -25.81      
C           67.73       -49.13      -25.25      
C           67.74       -48.28      -24.18      
C           72.97       -52.05      -23.71      
C           72.27       -52.2       -22.49      
S           72.03       -50.91      -24.69      
H           70.36       -51.64      -21.61      
H           72.69       -52.66      -21.6       
C           71.01       -51.58      -22.47      
C           70.64       -50.97      -23.68      
C           77.45       -53.8       -22.99      
C           76.48       -53.31      -23.87      
N           76.82       -53.79      -21.74      
C           75.51       -53.27      -21.83      
C           76.28       -52.96      -25.25      
O           76.99       -52.98      -26.27      
O           74.82       -52.9       -20.86      
C           74.25       -52.42      -26.59      
C           77.25       -54.24      -20.41      
H           76.65441    -55.09793   -20.09803   
H           77.18       -53.44      -19.7       
H           78.26       -54.62      -20.29      
H           73.62       -51.54      -26.78      
H           73.83005    -53.35243   -26.96724   
H           75.09       -52.02      -27.21      
N           74.9        -52.51      -25.31      
C           75.25       -52.96      -23.23      
C           74.31       -52.44      -24.04      
C           81.1        -55.07      -23.16      
C           80.55       -55.14      -24.44      
S           80.02       -54.32      -22.07      
H           78.68       -54.47      -25.41      
H           81.0        -55.62      -25.33      
C           79.26       -54.54      -24.47      
C           78.77       -54.26      -23.26      
C           84.84       -56.14      -22.37      
C           84.4        -55.37      -21.27      
S           83.5        -56.23      -23.57      
H           82.57       -54.42      -20.67      
H           85.15       -55.01      -20.51      
C           83.06       -54.96      -21.47      
C           82.41       -55.35      -22.61      
C           88.14       -58.13      -23.56      
C           88.33       -57.74      -22.25      
S           86.72       -57.29      -24.14      
H           87.07       -56.98      -20.64      
H           89.13       -58.12      -21.62      
C           87.17       -57.07      -21.72      
C           86.14       -56.77      -22.59      
C           92.26       -60.27      -24.99      
C           90.93       -59.96      -25.28      
N           92.49       -59.78      -23.71      
C           91.39       -59.09      -23.21      
C           89.88       -59.96      -26.26      
O           89.82       -60.47      -27.36      
O           91.42       -58.52      -22.15      
C           87.42       -59.53      -26.36      
C           93.59       -59.99      -22.75      
H           93.31543    -60.64896   -21.9263    
H           93.96       -59.06      -22.4       
H           94.5        -60.44      -23.2       
H           86.71       -58.81      -26.18      
H           86.90993    -60.47728   -26.18512   
H           87.61       -59.58      -27.44      
N           88.71       -59.4       -25.65      
C           90.39       -59.21      -24.17      
C           89.07       -58.81      -24.43      
C           95.2        -62.21      -27.05      
C           94.17       -61.93      -27.85      
S           94.85       -61.45      -25.46      
H           92.18       -60.98      -27.71      
H           94.11       -62.28      -28.87      
C           93.11       -61.23      -27.19      
C           93.27       -60.92      -25.86      
C           98.35       -64.18      -28.09      
C           98.69       -63.38      -27.01      
S           96.73       -63.88      -28.62      
H           97.59       -62.06      -25.56      
H           99.66       -63.39      -26.53      
C           97.58       -62.61      -26.55      
C           96.47       -62.77      -27.3       
C           100.86      -66.79      -29.79      
C           99.78       -66.6       -30.62      
S           100.68      -65.83      -28.34      
H           97.88       -65.43      -30.51      
H           99.64       -67.18      -31.53      
C           98.86       -65.65      -30.08      
C           99.18       -65.11      -28.87      
C           103.82      -69.29      -32.63      
C           103.5       -68.94      -31.28      
N           103.13      -68.44      -33.48      
C           102.22      -67.65      -32.72      
C           103.82      -69.09      -29.89      
O           104.55      -69.88      -29.23      
O           101.35      -66.91      -33.2       
C           102.5       -68.58      -27.74      
C           103.62      -68.0       -34.83      
H           103.98891   -66.98008   -34.7215    
H           102.94      -68.01      -35.64      
H           104.46      -68.55      -35.2       
H           101.45      -68.76      -27.75      
H           102.87418   -67.8892    -26.98444   
H           102.88      -69.63      -27.63      
N           102.86      -68.24      -29.17      
C           102.47      -67.91      -31.35      
C           102.06      -67.5       -30.05      
C           105.91      -72.23      -34.14      
C           106.52      -71.9       -32.98      
S           104.62      -71.16      -34.62      
H           105.99      -70.54      -31.35      
H           107.4       -72.39      -32.58      
C           105.76      -70.85      -32.34      
C           104.79      -70.28      -33.08      
C           107.54      -75.2       -36.06      
C           106.3       -74.98      -36.69      
S           107.92      -73.9       -34.99      
H           104.57      -73.69      -36.15      
H           105.96      -75.65      -37.52      
C           105.58      -73.99      -35.94      
C           106.32      -73.33      -35.02      
C           110.12      -78.16      -36.4       
C           109.86      -77.71      -37.66      
S           109.15      -77.24      -35.23      
H           108.45      -76.26      -38.57      
H           110.33      -78.1       -38.54      
C           108.95      -76.58      -37.65      
C           108.55      -76.13      -36.42      
C           113.3       -81.67      -37.23      
C           112.53      -80.98      -36.26      
N           112.75      -81.32      -38.46      
C           111.69      -80.38      -38.28      
C           112.26      -80.81      -34.79      
O           112.75      -81.38      -33.85      
O           111.18      -79.95      -39.25      
C           110.95      -79.29      -33.39      
C           113.27      -81.44      -39.85      
H           113.99689   -80.65719   -40.06667   
H           113.86      -82.34      -39.96      
H           112.49      -81.47      -40.58      
H           109.91      -78.83      -33.37      
H           111.70339   -78.81261   -32.76342   
H           110.76      -80.24      -33.0       
N           111.41      -79.65      -34.75      
C           111.62      -80.16      -36.92      
C           111.03      -79.27      -36.04      
C           116.14      -84.51      -36.89      
C           116.05      -83.8       -35.69      
S           114.99      -83.77      -37.94      
H           114.86      -81.99      -34.9       
H           116.67      -83.98      -34.83      
C           115.09      -82.66      -35.75      
C           114.39      -82.56      -36.89      
C           118.04      -87.42      -38.55      
C           118.19      -87.54      -37.2       
S           116.97      -86.17      -38.91      
H           117.81      -86.33      -35.33      
H           118.88      -88.3       -36.79      
C           117.63      -86.5       -36.42      
C           116.95      -85.62      -37.28      
C           119.75      -90.18      -40.8       
C           119.2       -89.17      -41.63      
S           119.02      -89.9       -39.26      
H           118.06      -87.3       -41.61      
H           119.3       -89.23      -42.71      
C           118.43      -88.18      -41.03      
C           118.4       -88.35      -39.6       
C           119.83      -94.13      -43.46      
C           120.12      -93.57      -42.27      
N           119.53      -93.11      -44.32      
C           119.52      -91.83      -43.73      
C           120.74      -93.79      -40.97      
O           121.2       -94.75      -40.4       
O           119.33      -90.83      -44.3       
C           121.01      -92.44      -38.99      
C           119.5       -93.14      -45.82      
H           118.52357   -92.83128   -46.19334   
H           119.69      -94.09      -46.17      
H           120.3       -92.53      -46.16      
H           120.41      -91.75      -38.49      
H           122.07718   -92.38456   -38.77518   
H           120.62      -93.39      -38.63      
N           120.7       -92.48      -40.38      
C           119.89      -92.14      -42.39      
C           120.15      -91.52      -41.21      
C           118.97      -97.9       -44.29      
C           119.87      -97.89      -43.26      
S           118.76      -96.29      -44.91      
H           120.79      -96.36      -42.01      
H           120.16      -98.81      -42.66      
C           120.26      -96.55      -42.94      
C           119.81      -95.56      -43.78      
C           116.71      -100.33     -46.29      
C           117.24      -101.04     -45.22      
S           117.4       -98.75      -46.35      
H           118.65      -100.6      -43.46      
H           116.85      -102.0      -44.81      
C           118.19      -100.31     -44.41      
C           118.28      -99.03      -44.84      
C           114.57      -102.3      -48.89      
C           115.12      -101.21     -49.57      
S           114.9       -102.2      -47.21      
H           116.38      -99.5       -48.96      
H           115.16      -101.04     -50.6       
C           115.72      -100.32     -48.64      
C           115.86      -100.81     -47.37      
H           41.58       5.71        0.9         
H           114.22      -103.28     -49.3       
