392

C           67.46       17.29       14.92       
C           67.64       17.32       13.6        
N           66.2        17.88       15.17       
C           65.76       18.58       14.06       
C           68.52       16.96       12.51       
O           69.5        16.29       12.46       
O           64.76       19.3        14.03       
C           68.32       16.87       10.15       
C           65.27       17.7        16.25       
H           64.47328    17.03607    15.91454    
H           64.85       18.67       16.55       
H           65.73       17.39       17.13       
H           69.4        17.04       9.93        
H           67.71816    17.27359    9.33575     
H           68.19       15.84       10.33       
N           67.95       17.54       11.35       
C           66.62       18.13       13.02       
C           66.85       18.28       11.71       
C           69.48       15.53       17.89       
C           70.18       15.5        16.75       
S           68.03       16.38       17.62       
H           69.99       16.33       14.65       
H           71.24       15.06       16.77       
C           69.55       16.14       15.62       
C           68.38       16.71       15.93       
C           71.12       13.88       21.04       
C           70.25       14.79       21.49       
S           71.21       13.83       19.34       
H           68.75       16.14       20.61       
H           70.08       15.05       22.52       
C           69.55       15.46       20.41       
C           70.0        15.09       19.19       
C           73.3        11.07       22.83       
C           72.61       11.83       23.73       
S           73.0        11.75       21.29       
H           71.0        13.38       23.72       
H           72.62       11.7        24.84       
C           71.71       12.8        23.17       
C           71.85       12.92       21.81       
C           76.2        8.13        25.39       
C           75.73       8.48        24.16       
N           75.37       8.72        26.4        
C           74.34       9.54        25.77       
C           75.89       8.22        22.75       
O           76.6        7.47        22.17       
O           73.42       10.1        26.32       
C           74.8        9.14        20.69       
C           75.16       8.3         27.77       
H           74.27076    7.68384     27.90304    
H           75.09       9.1         28.5        
H           76.02       7.74        28.12       
H           74.9        10.11       20.33       
H           73.96904    8.55976     20.28885    
H           75.73       8.73        20.34       
N           74.88       9.12        22.16       
C           74.67       9.48        24.33       
C           74.26       9.96        23.06       
C           79.5        6.03        26.4        
C           78.95       5.51        25.16       
S           78.34       7.22        27.03       
H           77.27       5.9         23.83       
H           79.47       4.84        24.52       
C           77.74       6.15        24.76       
C           77.28       7.1         25.63       
C           82.88       4.75        27.78       
C           82.29       5.45        28.76       
S           82.02       4.86        26.25       
H           80.32       6.37        29.11       
H           82.77       5.46        29.77       
C           80.98       5.93        28.4        
C           80.71       5.68        27.07       
C           86.12       2.56        27.25       
C           86.01       2.97        28.56       
S           84.78       3.23        26.38       
H           84.8        4.33        29.84       
H           86.75       2.78        29.34       
C           84.96       3.84        28.85       
C           84.15       4.01        27.81       
C           90.43       0.07        26.99       
C           89.23       0.49        26.41       
N           90.45       0.68        28.24       
C           89.27       1.48        28.44       
C           88.43       0.31        25.23       
O           88.52       -0.43       24.3        
O           89.13       2.17        29.4        
C           86.23       0.93        24.35       
C           91.54       0.83        29.18       
H           92.26435    1.56125     28.82127    
H           92.12       0.0         29.41       
H           91.09       1.19        30.13       
H           85.61       1.82        24.31       
H           85.6051     0.05371     24.52239    
H           86.75       0.76        23.41       
N           87.25       1.09        25.41       
C           88.46       1.29        27.28       
C           87.22       1.71        26.71       
C           93.04       -2.6        25.69       
C           92.57       -1.94       24.67       
S           92.37       -1.93       27.19       
H           91.02       -0.41       24.15       
H           92.72       -2.34       23.67       
C           91.63       -0.91       24.98       
C           91.42       -0.69       26.32       
C           94.72       -6.14       25.16       
C           95.45       -5.4        26.09       
S           93.34       -5.19       24.65       
H           95.48       -3.38       27.02       
H           96.35       -5.83       26.57       
C           94.97       -4.06       26.34       
C           93.82       -3.84       25.64       
C           94.24       -9.59       23.35       
C           95.28       -9.64       24.18       
S           93.78       -7.91       23.28       
H           96.49       -8.42       25.67       
H           95.85       -10.57      24.29       
C           95.67       -8.46       24.96       
C           94.88       -7.39       24.54       
C           93.41       -14.28      22.49       
C           93.07       -12.98      22.39       
N           94.5        -14.38      23.31       
C           95.01       -13.03      23.56       
C           92.03       -12.07      21.83       
O           90.93       -12.25      21.28       
O           96.01       -12.83      24.21       
C           91.55       -9.66       21.69       
C           95.05       -15.41      24.17       
H           94.9225     -15.16917   25.22539    
H           96.1        -15.57      24.03       
H           94.57       -16.3       23.98       
H           91.95       -8.66       21.42       
H           90.6562     -9.54036    22.30229    
H           91.19       -9.95       20.69       
N           92.46       -10.74      22.18       
C           94.0        -12.11      23.03       
C           93.62       -10.8       22.88       
C           91.58       -17.28      20.8        
C           90.67       -16.31      20.94       
S           93.08       -16.94      21.65       
H           90.62       -14.41      22.03       
H           89.7        -16.32      20.46       
C           91.22       -15.2       21.69       
C           92.51       -15.32      22.08       
C           90.49       -20.23      18.51       
C           91.58       -20.65      19.17       
S           90.05       -18.62      18.92       
H           93.01       -19.8       20.67       
H           92.01       -21.65      19.04       
C           92.12       -19.63      20.07       
C           91.36       -18.51      20.09       
C           88.53       -21.32      15.4        
C           89.27       -22.37      15.86       
S           88.8        -19.97      16.45       
H           90.53       -22.76      17.66       
H           89.3        -23.31      15.35       
C           89.82       -22.12      17.13       
C           89.75       -20.87      17.46       
C           87.08       -22.74      10.99       
C           87.07       -21.79      11.99       
N           87.94       -23.75      11.38       
C           88.44       -23.53      12.74       
C           86.45       -20.51      12.38       
O           85.62       -19.75      11.83       
O           89.17       -24.28      13.38       
C           86.7        -18.92      14.3        
C           87.8        -25.11      10.92       
H           87.22472    -25.62846   11.68704    
H           88.72       -25.66      10.8        
H           87.17       -25.26      10.02       
H           87.65       -18.44      14.62       
H           85.95804    -18.92      15.09849    
H           86.41       -18.29      13.56       
N           87.02       -20.25      13.68       
C           87.88       -22.24      13.14       
C           87.85       -21.25      14.1        
C           86.38       -22.33      7.22        
C           85.49       -21.56      7.94        
S           87.24       -23.36      8.35        
H           85.07       -21.17      10.08       
H           84.83       -20.77      7.49        
C           85.57       -21.75      9.34        
C           86.44       -22.7       9.72        
C           87.87       -21.55      3.77        
C           87.68       -22.91      3.82        
S           87.43       -20.77      5.2         
H           87.09       -24.37      5.38        
H           87.98       -23.61      3.04        
C           87.14       -23.32      5.12        
C           86.83       -22.27      5.86        
C           89.39       -20.02      0.51        
C           89.42       -19.16      1.55        
S           88.54       -21.45      1.12        
H           89.24       -19.05      3.76        
H           89.91       -18.17      1.45        
C           89.06       -19.61      2.8         
C           88.47       -20.83      2.73        
C           90.99       -17.62      -3.36       
C           90.65       -18.82      -2.76       
N           90.67       -16.56      -2.47       
C           90.15       -17.15      -1.26       
C           90.7        -20.21      -2.95       
O           91.08       -20.93      -3.88       
O           89.77       -16.47      -0.29       
C           90.31       -22.25      -1.51       
C           90.84       -15.13      -2.54       
H           91.47483    -14.73934   -1.74472    
H           89.86       -14.57      -2.42       
H           91.19       -14.69      -3.52       
H           89.4        -22.61      -1.0        
H           91.27423    -22.50524   -1.07043    
H           90.31       -22.72      -2.47       
N           90.18       -20.77      -1.74       
C           90.16       -18.6       -1.43       
C           89.82       -19.75      -0.88       
C           92.98       -17.22      -6.63       
C           92.05       -18.21      -6.87       
S           92.66       -16.32      -5.14       
H           90.6        -19.19      -5.57       
H           91.96       -18.75      -7.78       
C           91.34       -18.45      -5.64       
C           91.48       -17.46      -4.71       
C           95.91       -15.76      -8.75       
C           95.24       -16.72      -9.48       
S           95.06       -15.55      -7.22       
H           93.59       -18.13      -9.3        
H           95.48       -17.03      -10.54      
C           94.2        -17.32      -8.84       
C           94.03       -16.85      -7.58       
C           98.97       -13.39      -8.73       
C           99.04       -14.11      -9.86       
S           97.59       -13.86      -7.84       
H           97.79       -15.34      -11.07      
H           99.84       -13.98      -10.52      
C           97.9        -14.87      -10.13      
C           97.03       -14.93      -9.07       
C           103.3       -11.26      -8.33       
C           101.98      -11.3       -7.96       
N           103.58      -12.3       -9.11       
C           102.4       -13.12      -9.3        
C           100.9       -10.6       -7.27       
O           100.85      -9.61       -6.59       
O           102.33      -13.86      -10.25      
C           98.41       -10.72      -7.04       
C           104.84      -12.67      -9.76       
H           105.29231   -13.50282   -9.22154    
H           105.67      -11.95      -9.76       
H           104.73      -12.97      -10.8       
H           97.76       -11.5       -6.5        
H           97.84795    -10.37693   -7.90862    
H           98.64       -9.87       -6.38       
N           99.67       -11.34      -7.49       
C           101.34      -12.49      -8.55       
C           99.97       -12.52      -8.2        
C           105.75      -8.64       -6.94       
C           104.54      -8.09       -7.2        
S           105.69      -10.29      -7.34       
H           102.58      -8.53       -8.15       
H           104.25      -7.13       -6.87       
C           103.6       -8.87       -7.84       
C           104.09      -10.14      -7.96       
C           108.34      -6.73       -4.97       
C           109.04      -7.58       -5.77       
S           106.63      -6.86       -5.23       
H           108.61      -9.28       -7.06       
H           110.11      -7.73       -5.65       
C           108.22      -8.38       -6.62       
C           106.92      -8.11       -6.39       
C           108.85      -3.63       -2.51       
C           110.06      -4.24       -2.75       
S           107.66      -4.68       -3.22       
H           110.93      -5.74       -4.1        
H           110.98      -3.76       -2.38       
C           110.02      -5.27       -3.74       
C           108.81      -5.67       -4.08       
C           109.75      -0.22       0.75        
C           108.93      -0.77       -0.22       
N           110.79      -1.12       0.92        
C           110.68      -2.22       0.01        
C           107.76      -0.51       -0.93       
O           106.9       0.44        -0.88       
O           111.47      -3.21       -0.01       
C           106.2       -1.73       -2.36       
C           112.09      -0.87       1.5         
H           112.82423   -0.6812     0.71682     
H           112.4       -1.71       2.16        
H           112.12      0.02        2.13        
H           105.93      -2.74       -2.65       
H           106.03529   -1.14665    -3.26591    
H           105.53      -1.4        -1.55       
N           107.57      -1.63       -1.8        
C           109.48      -1.97       -0.73       
C           108.64      -2.48       -1.69       
C           109.51      3.33        2.52        
C           108.26      2.76        2.29        
S           110.69      2.2         1.94        
H           107.4       0.85        1.56        
H           107.36      3.33        2.5         
C           108.29      1.45        1.72        
C           109.55      1.0         1.51        
C           110.38      7.13        2.85        
C           111.03      6.45        3.87        
S           109.22      6.08        2.06        
H           111.19      4.29        4.46        
H           111.73      6.93        4.56        
C           110.68      5.06        3.87        
C           109.83      4.67        2.95        
C           110.61      10.73       1.52        
C           110.78      10.77       2.95        
S           110.37      9.06        1.04        
H           110.63      9.28        4.59        
H           110.94      11.73       3.42        
C           110.56      9.45        3.53        
C           110.36      8.48        2.63        
C           108.85      15.06       0.3         
C           109.54      13.95       -0.1        
N           108.77      15.0        1.74        
C           109.2       13.72       2.18        
C           110.05      13.27       -1.23       
O           110.04      13.64       -2.38       
O           109.12      13.32       3.29        
C           111.39      11.19       -1.67       
C           108.36      15.92       2.84        
H           109.22938   16.46244    3.21153     
H           107.52      16.6        2.61        
H           108.08      15.38       3.82        
H           111.4       10.18       -1.41       
H           112.40365   11.5788     -1.7672     
H           110.88      11.35       -2.6        
N           110.56      11.96       -0.74       
C           109.77      13.06       1.02        
C           110.34      11.83       0.63        
C           106.98      18.14       -1.38       
C           107.54      17.4        -2.39       
S           107.25      17.41       0.16        
H           108.88      15.54       -2.33       
H           107.5       17.68       -3.46       
C           108.36      16.29       -1.86       
C           108.29      16.15       -0.51       
C           104.91      21.48       -0.98       
C           105.49      21.47       -2.23       
S           105.3       20.0        -0.17       
H           106.96      20.19       -3.37       
H           105.45      22.3        -2.9        
C           106.38      20.32       -2.45       
C           106.28      19.38       -1.49       
C           102.6       24.39       0.13        
C           102.39      23.34       1.03        
S           103.58      23.9        -1.21       
H           103.19      21.29       1.44        
H           101.78      23.51       1.9         
C           103.16      22.22       0.78        
C           103.9       22.36       -0.43       
C           98.74       27.01       1.12        
C           100.02      26.98       0.51        
N           98.43       25.78       1.53        
C           99.54       24.98       1.41        
C           100.96      27.73       -0.26       
O           100.97      28.87       -0.66       
O           99.54       23.75       1.74        
C           103.23      27.31       -0.99       
C           97.14       25.22       1.99        
H           97.23955    24.82179    2.99976     
H           96.94       24.42       1.3         
H           96.37       25.97       1.97        
H           103.71      26.52       -1.57       
H           103.95614   27.61429    -0.23619    
H           103.02      28.08       -1.69       
N           102.06      26.83       -0.39       
C           100.6       25.72       0.76        
C           101.75      25.56       0.05        
C           96.11       29.93       1.12        
C           96.99       30.09       0.08        
S           96.56       28.58       2.07        
H           98.74       29.06       -0.64       
H           96.9        30.93       -0.58       
C           97.95       29.08       0.06        
C           97.81       28.1        0.97        
C           93.11       32.39       1.62        
C           93.28       31.55       2.72        
S           94.28       31.99       0.44        
H           94.47       29.91       3.39        
H           92.62       31.6        3.53        
C           94.22       30.52       2.63        
C           94.92       30.64       1.46        
C           90.61       35.29       2.15        
C           90.76       35.16       0.75        
S           91.6        34.18       2.95        
H           92.03       33.89       -0.56       
H           90.23       35.74       0.03        
C           91.68       34.08       0.4         
C           92.1        33.43       1.49        
H           66.32       18.97       11.11       
H           90.43       36.25       2.65        
