392

C           35.57       3.05        27.36       
C           34.92       4.21        26.97       
N           37.02       3.28        27.3        
C           37.19       4.54        26.69       
C           33.63       4.86        26.81       
O           32.47       4.49        26.95       
O           38.26       5.02        26.51       
C           32.91       6.86        25.58       
C           38.16       2.57        27.91       
H           38.9323     2.3246      27.18101    
H           37.79       1.62        28.3        
H           38.54       3.04        28.78       
H           33.02       6.79        24.54       
H           32.93893    7.92316     25.81867    
H           31.86       6.46        25.64       
N           33.89       6.15        26.35       
C           35.87       5.23        26.7        
C           35.29       6.39        26.27       
C           34.09       -0.45       28.43       
C           33.23       0.57        28.69       
S           35.58       0.19        27.78       
H           33.19       2.74        28.7        
H           32.23       0.35        29.05       
C           33.73       1.84        28.47       
C           34.99       1.85        27.94       
C           34.31       -4.25       28.57       
C           33.1        -3.85       29.13       
S           35.18       -2.92       27.98       
H           31.96       -2.02       29.45       
H           32.44       -4.49       29.65       
C           32.84       -2.48       29.03       
C           33.91       -1.82       28.51       
C           36.2        -7.51       27.73       
C           34.86       -7.89       28.09       
S           36.36       -5.8        27.61       
H           33.11       -6.81       28.81       
H           34.41       -8.9        28.15       
C           34.18       -6.73       28.57       
C           34.85       -5.58       28.44       
C           38.36       -11.88      27.4        
C           38.44       -10.53      27.37       
N           37.04       -12.12      27.75       
C           36.26       -10.93      27.94       
C           39.36       -9.5        26.96       
O           40.44       -9.53       26.49       
O           35.05       -10.98      28.1        
C           39.3        -7.0        26.7        
C           36.45       -13.4       28.07       
H           36.47859    -13.48576   29.15625    
H           37.0        -14.2       27.58       
H           35.4        -13.51      27.79       
H           39.22       -6.21       27.42       
H           39.10405    -6.77026    25.65266    
H           40.37       -7.32       26.73       
N           38.59       -8.24       27.03       
C           37.19       -9.87       27.71       
C           37.3        -8.47       27.5        
C           41.0        -13.95      25.21       
C           40.54       -14.7       26.23       
S           40.01       -12.52      25.19       
H           39.22       -14.41      27.98       
H           40.79       -15.71      26.39       
C           39.61       -14.02      27.09       
C           39.29       -12.73      26.73       
C           42.89       -14.37      21.81       
C           43.31       -15.32      22.75       
S           41.8        -13.37      22.66       
H           42.92       -15.84      24.88       
H           44.11       -16.01      22.46       
C           42.77       -15.24      24.04       
C           41.91       -14.26      24.12       
C           44.11       -14.37      18.05       
C           43.85       -13.09      18.46       
S           43.64       -15.46      19.35       
H           43.16       -12.06      20.36       
H           43.85       -12.29      17.81       
C           43.53       -12.98      19.85       
C           43.4        -14.17      20.48       
C           45.57       -13.35      13.56       
C           45.32       -14.3       14.56       
N           45.55       -12.1       14.2        
C           45.32       -12.28      15.66       
C           45.16       -15.72      14.74       
O           45.21       -16.58      13.9        
O           45.53       -11.3       16.42       
C           44.63       -17.24      16.73       
C           45.87       -10.78      13.62       
H           44.99404    -10.13193   13.64849    
H           46.17       -10.84      12.58       
H           46.75       -10.29      14.04       
H           43.67       -17.18      17.27       
H           45.50499    -17.47286   17.33685    
H           44.63       -17.95      15.87       
N           44.75       -15.86      16.07       
C           45.0        -13.67      15.83       
C           44.59       -14.66      16.72       
C           47.35       -13.95      10.06       
C           46.32       -14.76      10.15       
S           47.32       -12.85      11.44       
H           44.86       -15.36      11.64       
H           46.01       -15.54      9.36        
C           45.62       -14.67      11.4        
C           45.93       -13.54      12.15       
C           50.2        -12.94      7.6         
C           49.07       -12.95      6.84        
S           49.9        -13.4       9.22        
H           46.98       -13.48      7.24        
H           49.05       -12.8       5.74        
C           47.93       -13.38      7.64        
C           48.22       -13.61      8.94        
C           54.05       -12.39      7.13        
C           53.48       -12.31      5.92        
S           52.83       -12.81      8.36        
H           51.45       -12.28      5.12        
H           54.05       -12.11      4.99        
C           52.06       -12.42      6.01        
C           51.54       -12.69      7.21        
C           58.6        -10.98      6.51        
C           57.59       -11.45      7.32        
N           58.09       -10.9       5.22        
C           56.73       -11.34      5.23        
C           57.37       -11.74      8.73        
O           58.04       -11.58      9.77        
O           55.97       -11.17      4.21        
C           55.47       -12.65      10.04       
C           58.72       -10.63      3.97        
H           58.55355    -11.44837   3.26953     
H           59.81       -10.57      4.17        
H           58.42       -9.7        3.53        
H           54.84       -13.5       9.92        
H           55.00314    -11.89049   10.66712    
H           56.33       -13.1       10.57       
N           55.98       -12.15      8.76        
C           56.41       -11.7       6.58        
C           55.41       -12.07      7.48        
C           61.72       -9.24       8.31        
C           62.11       -10.04      7.25        
S           59.99       -9.46       8.53        
H           61.14       -11.12      5.6         
H           63.13       -10.17      6.89        
C           61.08       -10.61      6.56        
C           59.83       -10.5       7.11        
C           64.46       -7.46       10.58       
C           63.43       -6.63       10.47       
S           64.19       -8.84       9.56        
H           61.27       -6.78       9.74        
H           63.37       -5.69       11.09       
C           62.27       -7.22       9.78        
C           62.55       -8.37       9.15        
C           67.98       -7.61       12.33       
C           67.47       -6.34       12.48       
S           66.85       -8.54       11.4        
H           65.58       -5.29       12.02       
H           67.97       -5.54       12.99       
C           66.18       -6.15       11.91       
C           65.69       -7.25       11.3        
C           72.43       -7.32       13.92       
C           71.44       -8.19       13.44       
N           72.05       -6.03       14.04       
C           70.68       -5.9        13.58       
C           71.02       -9.54       13.18       
O           71.6        -10.58      13.14       
O           70.02       -4.9        13.55       
C           68.84       -10.67      12.81       
C           72.79       -4.77       14.35       
H           73.08307    -4.25364    13.4359     
H           73.7        -5.01       14.9        
H           72.18       -4.14       14.98       
H           68.21       -10.75      11.94       
H           68.32724    -10.77394   13.76623    
H           69.54       -11.47      12.61       
N           69.62       -9.48       12.76       
C           70.31       -7.29       13.23       
C           69.28       -8.09       12.73       
C           75.98       -8.58       15.11       
C           75.49       -9.49       14.29       
S           74.92       -7.17       15.27       
H           73.68       -9.69       13.03       
H           75.81       -10.51      14.21       
C           74.28       -9.03       13.67       
C           73.78       -7.8        14.13       
C           79.53       -9.05       16.47       
C           78.93       -8.13       17.29       
S           78.35       -9.73       15.42       
H           77.08       -6.87       17.13       
H           79.45       -7.68       18.16       
C           77.67       -7.71       16.76       
C           77.23       -8.52       15.8        
C           83.06       -10.61      16.63       
C           82.75       -10.12      17.84       
S           81.68       -10.45      15.6        
H           80.98       -9.24       18.84       
H           83.5        -10.19      18.58       
C           81.45       -9.6        17.98       
C           80.77       -9.61       16.8        
C           85.94       -13.17      13.96       
C           85.87       -12.21      14.88       
N           84.72       -13.87      13.87       
C           83.7        -13.22      14.75       
C           86.56       -11.13      15.56       
O           87.74       -10.87      15.67       
O           82.62       -13.68      14.95       
C           85.85       -9.13       16.91       
C           84.3        -14.85      12.88       
H           83.53159    -14.44521   12.22137    
H           83.75       -15.59      13.5        
H           85.12       -15.26      12.4        
H           85.3        -8.94       17.88       
H           85.63243    -8.29598    16.24278    
H           86.88       -9.08       17.13       
N           85.56       -10.4       16.26       
C           84.46       -12.12      15.35       
C           84.34       -11.08      16.19       
C           88.92       -14.03      11.48       
C           89.3        -13.28      12.53       
S           87.25       -14.27      11.65       
H           88.61       -12.56      14.46       
H           90.34       -12.87      12.58       
C           88.39       -13.1       13.52       
C           87.18       -13.53      13.23       
C           90.41       -15.33      8.16        
C           90.94       -14.06      8.38        
S           89.23       -15.78      9.38        
H           90.83       -12.53      9.97        
H           91.76       -13.65      7.76        
C           90.47       -13.48      9.59        
C           89.58       -14.32      10.21       
C           91.79       -17.59      5.28        
C           91.01       -18.32      6.13        
S           91.85       -15.92      5.86        
H           89.59       -17.98      7.84        
H           91.02       -19.41      6.06        
C           90.3        -17.55      7.11        
C           90.7        -16.29      7.13        
C           94.54       -20.97      3.08        
C           94.04       -19.74      3.1         
N           93.65       -21.72      3.86        
C           92.85       -20.95      4.68        
C           94.04       -18.43      2.5         
O           94.61       -17.97      1.54        
O           92.06       -21.4       5.5         
C           92.45       -16.51      2.52        
C           93.07       -22.97      3.63        
H           92.27212    -22.77053   2.91466     
H           92.67       -23.46      4.47        
H           93.84       -23.6       3.13        
H           92.32       -15.63      3.21        
H           91.52411    -16.80491   2.02619     
H           93.21       -16.14      1.84        
N           93.11       -17.61      3.19        
C           93.09       -19.62      4.21        
C           92.63       -18.29      4.34        
C           97.61       -22.62      1.24        
C           97.66       -21.29      1.21        
S           96.22       -23.12      2.11        
H           96.56       -19.56      1.8         
H           98.52       -20.88      0.75        
C           96.57       -20.6       1.77        
C           95.71       -21.47      2.34        
C           100.13      -25.57      0.83        
C           100.52      -24.53      0.04        
S           98.68       -25.16      1.58        
H           100.0       -22.51      -0.5        
H           101.45      -24.57      -0.52       
C           99.71       -23.42      0.05        
C           98.66       -23.59      0.87        
C           102.33      -28.68      1.79        
C           101.07      -29.11      1.53        
S           102.48      -26.96      1.47        
H           99.07       -28.27      1.13        
H           100.82      -30.19      1.69        
C           100.12      -28.08      1.29        
C           100.76      -26.88      1.09        
C           104.32      -32.94      2.55        
C           104.39      -31.59      2.68        
N           103.23      -33.16      1.7         
C           102.75      -31.91      1.11        
C           105.18      -30.52      3.29        
O           106.17      -30.52      4.03        
O           102.01      -31.71      0.16        
C           104.97      -28.0       3.4         
C           102.41      -34.29      1.78        
H           101.40809   -34.10083   1.39465     
H           102.39      -34.49      2.86        
H           102.82      -35.17      1.26        
H           104.24      -27.21      3.4         
H           105.76427   -27.53195   2.81848     
H           105.34      -28.15      4.4         
N           104.47      -29.29      2.93        
C           103.4       -30.94      1.87        
C           103.42      -29.58      2.1         
C           106.49      -35.86      4.28        
C           106.67      -34.7       4.94        
S           105.37      -35.57      2.97        
H           105.91      -32.62      5.04        
H           107.32      -34.58      5.82        
C           105.87      -33.62      4.5         
C           105.02      -33.89      3.44        
C           108.28      -38.86      5.92        
C           108.05      -39.21      4.59        
S           107.6       -37.24      6.25        
H           107.18      -38.23      2.84        
H           108.37      -40.14      4.13        
C           107.38      -38.16      3.87        
C           107.09      -37.11      4.59        
C           109.53      -41.65      8.45        
C           110.13      -40.42      8.76        
S           108.62      -41.42      7.01        
H           110.19      -38.36      8.1         
H           110.83      -40.39      9.57        
C           109.74      -39.35      7.97        
C           108.92      -39.7       6.92        
C           108.16      -45.99      9.45        
C           109.19      -45.11      9.38        
N           106.97      -45.31      9.13        
C           107.25      -43.95      8.88        
C           110.55      -44.97      9.77        
O           111.41      -45.73      10.15       
O           106.37      -43.08      8.68        
C           112.25      -43.31      9.28        
C           105.56      -45.76      9.38        
H           105.05519   -46.01241   8.4475      
H           105.44      -46.52      10.17       
H           105.03      -44.93      9.78        
H           112.42      -42.25      9.3         
H           112.63885   -43.74834   8.3609      
H           112.83      -43.79      10.1        
N           110.81      -43.58      9.49        
C           108.65      -43.84      9.03        
C           109.69      -42.89      9.01        
C           108.3       -49.91      9.89        
C           109.47      -49.49      9.3         
S           107.34      -48.52      10.29       
H           110.33      -47.65      8.66        
H           110.26      -50.14      8.97        
C           109.47      -48.1       9.05        
C           108.42      -47.42      9.49        
C           107.26      -53.67      10.33       
C           106.72      -52.97      11.36       
S           108.09      -52.6       9.23        
H           106.69      -50.88      12.03       
H           106.18      -53.38      12.22       
C           106.97      -51.54      11.27       
C           107.8       -51.2       10.23       
C           106.14      -57.46      10.11       
C           107.04      -57.2       9.08        
S           105.97      -55.94      10.95       
H           108.45      -55.63      8.42        
H           107.35      -57.89      8.35        
C           107.64      -55.89      9.13        
C           107.07      -55.06      10.06       
C           104.07      -61.49      8.68        
C           104.39      -60.68      9.74        
N           104.51      -60.96      7.53        
C           105.07      -59.69      7.8         
C           104.28      -60.52      11.22       
O           103.87      -61.13      12.19       
O           105.37      -58.97      6.9         
C           105.32      -58.83      12.72       
C           104.76      -61.41      6.17        
H           105.81702   -61.627     6.016       
H           104.27      -60.75      5.52        
H           104.2       -62.37      6.1         
H           105.39      -57.72      12.83       
H           106.14271   -59.34594   13.21502    
H           104.38      -58.98      13.26       
N           104.97      -59.26      11.37       
C           105.01      -59.51      9.21        
C           105.34      -58.6       10.24       
C           102.38      -64.97      8.98        
C           103.08      -64.76      10.04       
S           102.33      -63.54      7.93        
H           104.27      -63.12      10.81       
H           103.22      -65.45      10.85       
C           103.68      -63.48      9.98        
C           103.59      -62.78      8.83        
C           100.88      -68.61      8.51        
C           100.07      -67.66      7.95        
S           102.2       -67.75      9.25        
H           100.01      -65.42      7.7         
H           99.12       -67.91      7.38        
C           100.56      -66.35      8.05        
C           101.67      -66.17      8.76        
C           100.25      -72.52      8.12        
C           101.07      -72.22      9.2         
S           99.93       -71.03      7.37        
H           102.2       -70.49      9.95        
H           101.55      -73.02      9.82        
C           101.39      -70.88      9.31        
C           100.69      -70.03      8.56        
H           35.8        7.37        26.21       
H           100.06      -73.49      7.72        
