392

C           64.01       14.85       9.97        
C           63.84       15.87       10.89       
N           63.21       15.27       8.87        
C           62.17       16.14       9.33        
C           64.44       16.43       12.13       
O           65.43       16.18       12.84       
O           61.22       16.48       8.67        
C           63.8        18.44       13.56       
C           63.2        14.96       7.44        
H           63.43917    15.85147    6.86019     
H           62.13       14.62       7.19        
H           63.84       14.09       7.2         
H           62.82       18.89       13.81       
H           64.59929    19.15365    13.36018    
H           64.15       17.9        14.38       
N           63.55       17.52       12.43       
C           62.69       16.56       10.61       
C           62.49       17.54       11.56       
C           66.32       11.71       9.61        
C           66.91       12.56       10.53       
S           64.91       12.49       8.87        
H           66.62       14.69       11.08       
H           67.82       12.29       11.1        
C           66.25       13.82       10.55       
C           65.06       13.85       9.88        
C           66.92       8.13        8.31        
C           68.12       8.58        8.85        
S           65.7        9.34        8.52        
H           68.9        10.59       9.58        
H           69.02       8.05        8.7         
C           68.07       9.94        9.27        
C           66.82       10.45       9.16        
C           65.72       5.25        5.91        
C           66.83       4.87        6.57        
S           65.38       6.86        6.42        
H           68.34       5.74        8.02        
H           67.36       3.92        6.37        
C           67.34       5.81        7.53        
C           66.63       6.93        7.6         
C           65.61       2.8         1.67        
C           64.91       3.41        2.7         
N           66.94       2.7         2.08        
C           67.11       3.27        3.42        
C           63.65       3.98        3.1         
O           62.54       3.9         2.57        
O           68.17       3.4         4.04        
C           62.71       4.8         5.19        
C           68.01       1.87        1.67        
H           68.23113    1.02827     2.32627     
H           68.83       2.51        1.35        
H           67.78       1.4         0.7         
H           62.63       5.75        5.63        
H           62.68903    4.07989     6.00799     
H           61.78       4.8         4.59        
N           63.87       4.61        4.38        
C           65.84       3.8         3.77        
C           65.2        4.64        4.69        
C           64.52       1.63        -1.95       
C           63.43       1.84        -1.2        
S           65.94       2.07        -1.05       
H           62.89       2.38        0.88        
H           62.43       1.59        -1.5        
C           63.7        2.21        0.15        
C           65.06       2.36        0.43        
C           64.58       -0.35       -5.29       
C           65.73       0.31        -5.18       
S           63.49       0.07        -4.06       
H           66.65       1.74        -3.87       
H           66.65       0.09        -5.81       
C           65.7        1.29        -4.11       
C           64.58       1.17        -3.28       
C           62.85       -3.05       -7.52       
C           64.11       -3.48       -7.2        
S           62.54       -1.48       -6.83       
H           65.88       -2.59       -6.06       
H           64.52       -4.37       -7.66       
C           64.87       -2.51       -6.43       
C           64.18       -1.4        -6.15       
C           61.23       -7.09       -9.38       
C           61.06       -5.72       -9.25       
N           62.23       -7.52       -8.52       
C           62.8        -6.36       -7.82       
C           60.2        -4.59       -9.66       
O           59.19       -4.46       -10.28      
O           63.53       -6.39       -6.84       
C           60.45       -2.11       -9.47       
C           62.81       -8.81       -8.17       
H           63.89803    -8.85978    -8.12733    
H           62.54       -9.52       -8.9        
H           62.41       -9.13       -7.19       
H           61.39       -1.58       -9.73       
H           59.80137    -1.56456    -8.78452    
H           59.8        -2.28       -10.39      
N           60.83       -3.49       -8.98       
C           62.07       -5.21       -8.35       
C           61.88       -3.89       -8.23       
C           59.25       -9.73       -11.6       
C           58.75       -8.46       -11.75      
S           60.38       -9.69       -10.3       
H           59.23       -6.47       -11.04      
H           57.92       -8.23       -12.43      
C           59.46       -7.47       -11.06      
C           60.44       -7.95       -10.24      
C           58.93       -13.22      -13.12      
C           57.72       -12.65      -13.22      
S           60.06       -12.27      -12.27      
H           56.78       -10.67      -12.91      
H           56.88       -13.17      -13.66      
C           57.71       -11.29      -12.81      
C           58.9        -11.0       -12.15      
C           59.71       -16.57      -15.03      
C           60.68       -16.35      -14.09      
S           58.67       -15.2       -15.04      
H           61.3        -14.9       -12.53      
H           61.35       -17.12      -13.77      
C           60.51       -15.21      -13.25      
C           59.42       -14.48      -13.67      
C           61.31       -20.55      -17.18      
C           60.22       -19.74      -16.89      
N           62.49       -19.9       -16.73      
C           62.12       -18.67      -16.03      
C           58.82       -19.65      -16.97      
O           57.89       -20.38      -17.22      
O           62.97       -18.07      -15.39      
C           57.12       -18.14      -16.01      
C           63.87       -20.07      -17.23      
H           64.27968    -19.13762   -17.61849   
H           63.99       -20.87      -18.02      
H           64.6        -20.48      -16.48      
H           56.9        -17.12      -16.26      
H           56.76011    -18.44452   -15.02723   
H           56.49       -18.67      -16.67      
N           58.5        -18.43      -16.25      
C           60.71       -18.55      -16.19      
C           59.63       -17.72      -15.88      
C           61.73       -24.4       -17.84      
C           60.49       -24.02      -18.23      
S           62.57       -23.03      -17.31      
H           59.25       -22.1       -18.12      
H           59.7        -24.7       -18.48      
C           60.21       -22.64      -18.03      
C           61.26       -21.94      -17.62      
C           64.31       -27.2       -17.32      
C           63.46       -27.66      -18.32      
S           63.83       -25.57      -16.86      
H           61.71       -26.8       -19.49      
H           63.65       -28.59      -18.77      
C           62.44       -26.72      -18.67      
C           62.45       -25.6       -17.83      
C           67.73       -28.84      -16.95      
C           67.53       -28.09      -15.8       
S           66.34       -28.85      -17.93      
H           65.88       -26.98      -14.84      
H           68.29       -27.98      -14.97      
C           66.26       -27.53      -15.73      
C           65.5        -27.77      -16.85      
C           72.3        -27.96      -18.06      
C           71.12       -28.63      -18.28      
N           72.11       -27.02      -17.07      
C           70.76       -27.16      -16.53      
C           70.55       -29.57      -19.24      
O           70.96       -30.25      -20.16      
O           70.22       -26.43      -15.72      
C           68.34       -30.78      -19.34      
C           73.12       -26.2       -16.44      
H           72.96613    -25.12293   -16.37406   
H           74.03       -26.32      -16.97      
H           73.4        -26.55      -15.48      
H           67.32       -30.37      -19.49      
H           68.13814    -31.72666   -18.83882   
H           68.73       -30.92      -20.34      
N           69.22       -29.83      -18.63      
C           70.18       -28.23      -17.34      
C           69.0        -28.94      -17.61      
C           75.28       -28.22      -20.65      
C           74.58       -29.38      -20.64      
S           74.71       -27.16      -19.38      
H           73.04       -30.35      -19.33      
H           74.68       -30.2       -21.32      
C           73.64       -29.44      -19.53      
C           73.48       -28.24      -18.83      
C           78.35       -27.79      -22.92      
C           77.95       -26.55      -22.53      
S           77.33       -29.05      -22.34      
H           76.2        -25.74      -21.52      
H           78.45       -25.64      -22.82      
C           76.7        -26.63      -21.86      
C           76.28       -27.87      -21.57      
C           81.97       -28.17      -24.57      
C           81.16       -29.15      -25.07      
S           81.06       -27.26      -23.36      
H           79.05       -29.85      -24.92      
H           81.48       -29.89      -25.79      
C           79.8        -29.12      -24.6       
C           79.56       -28.1       -23.69      
C           85.85       -25.73      -25.64      
C           85.33       -26.92      -25.22      
N           84.83       -24.79      -25.52      
C           83.55       -25.45      -25.25      
C           85.66       -28.34      -24.98      
O           86.67       -29.0       -25.01      
O           82.52       -24.8       -25.42      
C           84.31       -30.26      -24.01      
C           84.86       -23.42      -25.02      
H           85.03442    -23.39093   -23.94444   
H           83.97       -22.83      -25.33      
H           85.64       -22.82      -25.36      
H           83.55       -30.92      -24.47      
H           84.17333    -30.18807   -22.931     
H           85.22       -30.72      -24.24      
N           84.35       -28.94      -24.61      
C           83.9        -26.77      -25.0       
C           83.34       -28.03      -24.78      
C           89.14       -24.68      -27.46      
C           89.36       -25.87      -26.83      
S           87.55       -24.04      -27.06      
H           88.18       -27.2       -25.43      
H           90.32       -26.33      -27.0       
C           88.29       -26.31      -26.0       
C           87.19       -25.44      -26.1       
C           91.52       -23.47      -30.36      
C           90.75       -22.39      -29.89      
S           91.12       -24.81      -29.39      
H           89.15       -21.89      -28.46      
H           90.91       -21.44      -30.36      
C           89.86       -22.66      -28.81      
C           89.92       -23.97      -28.45      
C           94.31       -22.92      -33.13      
C           93.83       -24.17      -33.3       
S           93.31       -22.08      -31.87      
H           92.35       -25.52      -32.32      
H           94.19       -24.75      -34.16      
C           92.79       -24.52      -32.35      
C           92.44       -23.47      -31.51      
C           98.6        -23.13      -35.24      
C           97.65       -22.4       -34.59      
N           98.15       -24.43      -35.27      
C           96.75       -24.52      -34.77      
C           97.3        -21.01      -34.2       
O           97.92       -20.01      -34.35      
O           96.23       -25.62      -34.68      
C           95.37       -19.9       -33.19      
C           98.65       -25.58      -35.97      
H           98.21133    -25.73821   -36.95521   
H           98.67       -26.52      -35.43      
H           99.7        -25.49      -36.13      
H           95.04       -20.06      -32.19      
H           94.6884     -19.47574   -33.92724   
H           96.2        -19.26      -32.96      
N           95.97       -21.11      -33.7       
C           96.48       -23.15      -34.34      
C           95.54       -22.46      -33.66      
C           102.52      -22.34      -35.85      
C           101.99      -21.41      -35.0       
S           101.28      -23.45      -36.37      
H           99.97       -21.1       -34.06      
H           102.5       -20.59      -34.62      
C           100.58      -21.68      -34.75      
C           100.01      -22.68      -35.44      
C           106.04      -23.17      -37.25      
C           106.1       -21.94      -36.72      
S           104.45      -23.81      -37.12      
H           104.8       -20.67      -35.55      
H           106.97      -21.37      -36.6       
C           104.88      -21.53      -36.13      
C           103.86      -22.36      -36.4       
C           109.49      -24.81      -38.43      
C           108.55      -25.16      -39.32      
S           108.71      -23.84      -37.22      
H           106.38      -24.79      -39.68      
H           108.78      -25.8       -40.13      
C           107.24      -24.63      -39.0       
C           107.17      -23.87      -37.9       
C           113.95      -26.04      -40.18      
C           113.14      -25.49      -39.17      
N           113.11      -25.97      -41.27      
C           111.7       -25.83      -40.89      
C           113.25      -25.09      -37.83      
O           114.17      -24.97      -37.03      
O           110.87      -25.7       -41.71      
C           111.66      -24.6       -36.0       
C           113.46      -25.62      -42.59      
H           113.2855    -24.56604   -42.80638   
H           112.98      -26.28      -43.33      
H           114.53      -25.79      -42.71      
H           110.91      -25.21      -35.66      
H           111.52995   -23.57332   -35.65777   
H           112.54      -24.99      -35.49      
N           111.9       -24.73      -37.43      
C           111.74      -25.4       -39.51      
C           110.94      -24.94      -38.45      
C           117.28      -27.98      -40.54      
C           117.28      -27.42      -39.32      
S           115.89      -27.51      -41.36      
H           115.99      -25.87      -38.22      
H           117.99      -27.76      -38.52      
C           116.17      -26.51      -39.12      
C           115.32      -26.53      -40.12      
C           118.71      -31.18      -42.26      
C           119.44      -31.07      -41.13      
S           117.68      -29.89      -42.51      
H           119.51      -29.67      -39.36      
H           120.11      -31.77      -40.78      
C           119.09      -29.88      -40.34      
C           118.12      -29.11      -40.99      
C           117.53      -33.46      -45.18      
C           117.91      -34.24      -44.15      
S           117.96      -31.85      -44.8       
H           118.86      -34.12      -42.2       
H           117.75      -35.3       -44.21      
C           118.62      -33.61      -43.07      
C           118.54      -32.24      -43.21      
C           115.65      -36.67      -48.3       
C           115.99      -35.37      -48.01      
N           116.1       -37.42      -47.25      
C           116.67      -36.63      -46.22      
C           115.85      -34.03      -48.49      
O           115.52      -33.57      -49.58      
O           116.9       -37.1       -45.12      
C           116.06      -31.79      -47.52      
C           116.46      -38.86      -47.22      
H           117.36584   -38.95272   -47.81914   
H           116.64      -39.23      -46.19      
H           115.72      -39.45      -47.64      
H           116.83      -31.16      -47.1       
H           115.1049    -31.53016   -47.06352   
H           116.25      -31.55      -48.63      
N           116.38      -33.22      -47.41      
C           116.54      -35.25      -46.67      
C           116.84      -33.99      -46.36      
C           113.09      -38.05      -50.91      
C           112.83      -36.73      -50.74      
S           114.33      -38.69      -49.96      
H           113.73      -35.14      -49.56      
H           112.0       -36.17      -51.19      
C           113.76      -36.18      -49.81      
C           114.6       -37.13      -49.2       
C           111.15      -41.05      -52.59      
C           110.93      -39.93      -53.38      
S           112.17      -40.6       -51.21      
H           111.66      -37.87      -53.46      
H           110.34      -39.93      -54.32      
C           111.67      -38.8       -52.91      
C           112.36      -38.96      -51.73      
C           110.32      -44.78      -52.45      
C           109.76      -44.26      -53.6       
S           111.35      -43.61      -51.69      
H           109.72      -42.29      -54.62      
H           108.97      -44.78      -54.16      
C           110.01      -42.86      -53.75      
C           110.69      -42.36      -52.73      
C           108.23      -49.19      -52.06      
C           109.22      -48.24      -51.64      
N           107.67      -48.61      -53.26      
C           108.21      -47.31      -53.49      
C           110.17      -48.09      -50.62      
O           110.51      -48.68      -49.64      
O           107.79      -46.65      -54.51      
C           112.18      -46.57      -50.48      
C           107.28      -49.36      -54.42      
H           108.16188   -49.63515   -54.99851   
H           106.61      -48.82      -55.02      
H           106.76      -50.3       -54.11      
H           112.19      -45.7       -49.9       
H           112.84622   -46.55597   -51.34258   
H           112.4       -47.39      -49.79      
N           110.81      -46.83      -50.97      
C           109.24      -47.09      -52.49      
C           110.16      -46.18      -52.04      
C           106.72      -52.42      -50.52      
C           107.92      -52.27      -49.96      
S           106.28      -51.07      -51.54      
H           109.66      -50.78      -50.19      
H           108.39      -52.89      -49.21      
C           108.65      -51.1       -50.48      
C           107.91      -50.45      -51.45      
C           104.41      -55.49      -49.72      
C           103.58      -54.46      -50.0       
S           106.1       -55.05      -50.04      
H           103.78      -52.36      -50.58      
H           102.54      -54.49      -49.78      
C           104.3       -53.29      -50.35      
C           105.7       -53.41      -50.35      
C           102.87      -58.77      -48.27      
C           104.22      -58.98      -48.42      
S           102.55      -57.1       -48.67      
H           105.98      -57.73      -49.2       
H           104.75      -59.89      -48.24      
C           104.92      -57.8       -48.87      
C           104.11      -56.75      -49.1       
H           61.56       18.11       11.76       
H           102.23      -59.64      -48.48      
