392

C           29.97       13.52       3.99        
C           29.0        14.37       4.4         
N           29.97       12.46       4.93        
C           29.16       12.75       6.06        
C           28.15       15.47       3.91        
O           28.22       16.15       2.86        
O           28.92       12.06       7.01        
C           26.17       16.68       4.83        
C           30.6        11.17       4.76        
H           31.26929    11.00268    5.60389     
H           31.24       11.21       3.93        
H           29.81       10.46       4.53        
H           26.43       17.63       5.2         
H           25.27465    16.36229    5.36432     
H           26.02       16.73       3.8         
N           27.33       15.73       5.06        
C           28.46       13.93       5.68        
C           27.49       14.78       6.05        
C           32.41       13.68       0.86        
C           31.25       14.16       0.54        
S           32.3        13.0        2.51        
H           29.35       14.72       1.46        
H           31.09       14.58       -0.42       
C           30.3        14.2        1.62        
C           30.69       13.53       2.73        
C           35.72       12.16       -0.42       
C           35.17       12.77       -1.53       
S           34.77       12.35       1.02        
H           33.34       13.87       -1.96       
H           35.61       12.69       -2.51       
C           33.92       13.37       -1.19       
C           33.62       13.32       0.14        
C           38.94       9.98        -1.03       
C           38.68       9.94        0.29        
S           37.73       10.99       -1.83       
H           37.16       10.63       1.69        
H           39.37       9.58        1.05        
C           37.45       10.6        0.63        
C           36.83       11.26       -0.4        
C           43.8        9.59        -0.93       
C           42.64       9.46        -1.67       
N           43.44       10.0        0.33        
C           42.05       10.32       0.35        
C           42.06       8.98        -2.95       
O           42.51       8.5         -3.9        
O           41.51       10.76       1.29        
C           39.76       8.56        -3.78       
C           44.0        9.7         1.64        
H           43.60622    8.74664     1.99233     
H           43.75       10.45       2.42        
H           45.06       9.66        1.52        
H           38.82       9.19        -3.87       
H           39.4468     7.52073     -3.68034    
H           40.29       8.8         -4.73       
N           40.59       9.08        -2.76       
C           41.5        9.83        -0.88       
C           40.33       9.71        -1.57       
C           47.54       9.21        -1.81       
C           46.84       8.45        -2.71       
S           46.52       10.18       -0.83       
H           44.76       7.9         -2.97       
H           47.31       7.86        -3.41       
C           45.49       8.44        -2.4        
C           45.13       9.26        -1.33       
C           51.44       9.34        -2.4        
C           51.16       10.12       -1.34       
S           50.02       8.69        -3.15       
H           49.27       10.89       -0.24       
H           52.01       10.56       -0.8        
C           49.76       10.23       -1.08       
C           48.98       9.48        -1.93       
C           54.96       9.69        -3.89       
C           54.42       8.6         -4.48       
S           53.75       10.56       -3.09       
H           52.55       7.47        -4.3        
H           54.98       7.87        -5.09       
C           53.11       8.34        -3.99       
C           52.57       9.32        -3.16       
C           58.82       10.11       -6.57       
C           58.21       10.34       -5.34       
N           57.83       9.67        -7.47       
C           56.53       9.5         -6.74       
C           58.45       10.74       -4.01       
O           59.41       11.16       -3.43       
O           55.51       9.11        -7.22       
C           56.99       11.06       -2.02       
C           58.05       9.34        -8.88       
H           57.16018    9.05555     -9.44161    
H           58.78       8.5         -8.95       
H           58.5        10.25       -9.27       
H           56.06       10.76       -1.51       
H           57.20218    12.0935     -1.74622    
H           57.71       10.4        -1.47       
N           57.12       10.8        -3.46       
C           56.85       9.97        -5.4        
C           56.18       10.26       -4.26       
C           62.42       10.99       -7.85       
C           62.25       11.58       -6.62       
S           61.05       10.05       -8.32       
H           60.56       11.93       -5.22       
H           63.05       12.09       -6.15       
C           60.95       11.42       -6.13       
C           60.13       10.6        -6.91       
C           65.13       10.45       -10.6       
C           65.6        11.43       -9.82       
S           63.54       10.08       -10.1       
H           65.05       12.48       -8.06       
H           66.57       11.92       -9.95       
C           64.75       11.76       -8.73       
C           63.54       11.09       -8.76       
C           66.76       9.83        -14.13      
C           66.06       8.64        -13.8       
S           66.72       10.9        -12.82      
H           65.05       7.96        -11.97      
H           66.07       7.73        -14.42      
C           65.55       8.76        -12.48      
C           65.64       9.96        -11.87      
C           69.15       8.81        -18.11      
C           68.64       9.76        -17.32      
N           68.8        7.6         -17.51      
C           68.2        7.71        -16.2       
C           68.23       11.15       -17.25      
O           68.19       12.05       -18.08      
O           68.03       6.68        -15.53      
C           66.66       12.41       -15.9       
C           68.47       6.42        -18.34      
H           67.4245     6.47768     -18.64283   
H           68.78       5.52        -17.77      
H           69.14       6.39        -19.23      
H           66.69       12.92       -14.98      
H           65.641      12.16572    -16.20012   
H           66.91       13.14       -16.67      
N           67.61       11.31       -15.97      
C           68.02       9.17        -16.15      
C           67.54       10.08       -15.31      
C           71.22       8.87        -21.51      
C           70.51       10.1        -21.35      
S           70.85       7.87        -20.19      
H           69.03       10.96       -19.9       
H           70.54       10.91       -22.07      
C           69.75       10.18       -20.15      
C           69.76       8.98        -19.43      
C           74.02       7.54        -23.87      
C           73.16       8.3         -24.62      
S           73.32       7.23        -22.29      
H           71.3        9.41        -24.29      
H           73.39       8.5         -25.67      
C           72.02       8.72        -23.91      
C           72.01       8.39        -22.57      
C           76.84       5.26        -25.42      
C           77.19       5.55        -24.13      
S           75.36       6.1         -25.73      
H           76.41       6.68        -22.38      
H           78.03       5.03        -23.65      
C           76.28       6.43        -23.42      
C           75.25       6.85        -24.22      
C           80.36       2.21        -26.55      
C           79.11       2.69        -26.82      
N           81.0        3.08        -25.66      
C           80.09       4.13        -25.33      
C           77.89       2.39        -27.62      
O           77.61       1.6         -28.53      
O           80.45       4.95        -24.53      
C           75.52       2.88        -26.98      
C           82.36       3.15        -25.02      
H           83.09241    3.69931     -25.61156   
H           82.72       2.15        -24.95      
H           82.29       3.49        -23.97      
H           74.75       3.75        -27.01      
H           75.33023    2.25958     -26.10412   
H           75.3        2.32        -27.86      
N           76.92       3.3         -27.02      
C           78.84       3.84        -26.05      
C           77.56       4.25        -26.22      
C           82.14       -1.2        -27.55      
C           80.93       -1.14       -28.2       
S           82.31       0.17        -26.5       
H           79.49       0.36        -28.63      
H           80.65       -1.85       -28.86      
C           80.32       0.1         -28.05      
C           80.88       0.91        -27.1       
C           85.32       -3.51       -27.69      
C           84.21       -4.27       -27.91      
S           84.78       -1.87       -27.36      
H           82.08       -3.98       -28.03      
H           84.23       -5.31       -28.03      
C           82.99       -3.54       -27.86      
C           83.16       -2.27       -27.53      
C           89.24       -3.92       -27.5       
C           88.73       -5.06       -28.0       
S           87.95       -2.82       -27.2       
H           86.74       -6.02       -28.43      
H           89.43       -5.85       -28.27      
C           87.29       -5.11       -28.04      
C           86.68       -3.91       -27.67      
C           93.39       -5.32       -25.83      
C           92.65       -4.27       -26.32      
N           92.63       -6.38       -25.58      
C           91.31       -6.09       -26.1       
C           92.71       -2.89       -26.74      
O           93.63       -2.05       -26.85      
O           90.38       -6.99       -26.18      
C           90.87       -1.28       -27.47      
C           92.79       -7.48       -24.66      
H           92.63217    -8.38394    -25.24828   
H           92.12       -7.4        -23.82      
H           93.77       -7.61       -24.22      
H           90.0        -0.98       -27.01      
H           90.74363    -1.09746    -28.53715   
H           91.66       -0.6        -27.18      
N           91.33       -2.56       -27.15      
C           91.31       -4.71       -26.54      
C           90.6        -3.73       -27.18      
C           97.24       -5.78       -24.85      
C           96.85       -4.48       -24.9       
S           95.89       -6.75       -25.4       
H           94.94       -3.23       -25.27      
H           97.53       -3.65       -24.63      
C           95.49       -4.22       -25.32      
C           94.78       -5.35       -25.53      
C           100.94      -7.09       -24.17      
C           100.05      -7.96       -23.77      
S           100.06      -5.69       -24.83      
H           97.91       -8.4        -23.9       
H           100.38      -8.94       -23.52      
C           98.72       -7.66       -24.06      
C           98.5        -6.35       -24.49      
C           104.71      -7.72       -24.4       
C           104.53      -6.4        -24.09      
S           103.22      -8.55       -24.56      
H           102.72      -5.13       -23.89      
H           105.39      -5.83       -23.82      
C           103.14      -6.07       -24.1       
C           102.37      -7.1        -24.21      
C           107.84      -11.16      -25.37      
C           107.55      -9.81       -25.51      
N           106.8       -11.86      -24.86      
C           105.71      -10.9       -24.48      
C           108.05      -8.52       -25.9       
O           109.05      -8.19       -26.5       
O           104.79      -11.27      -23.79      
C           107.09      -6.17       -26.01      
C           106.49      -13.3       -25.11      
H           105.81186   -13.3822    -25.95939   
H           105.9       -13.61      -24.25      
H           107.34      -13.86      -25.34      
H           106.72      -5.55       -25.24      
H           106.53933   -5.90878    -26.91367   
H           108.16      -5.9        -26.03      
N           106.95      -7.62       -25.6       
C           106.26      -9.57       -24.9       
C           105.92      -8.24       -24.93      
C           110.8       -12.55      -27.7       
C           110.72      -13.22      -26.49      
S           109.61      -11.31      -27.62      
H           109.46      -13.33      -24.65      
H           111.41      -14.06      -26.27      
C           109.68      -12.88      -25.63      
C           109.01      -11.75      -26.05      
C           112.37      -12.73      -31.23      
C           113.23      -13.4       -30.43      
S           111.08      -12.02      -30.37      
H           113.25      -14.03      -28.28      
H           114.03      -14.08      -30.7       
C           112.78      -13.37      -29.07      
C           111.63      -12.66      -28.86      
C           112.25      -11.12      -34.74      
C           113.08      -12.24      -34.86      
S           111.56      -11.01      -33.12      
H           113.76      -13.92      -33.67      
H           113.55      -12.46      -35.78      
C           113.18      -13.0       -33.64      
C           112.5       -12.35      -32.6       
C           111.98      -9.48       -39.21      
C           111.78      -9.28       -37.87      
N           112.64      -10.7       -39.38      
C           112.9       -11.32      -38.16      
C           111.22      -8.23       -36.96      
O           110.78      -7.07       -37.05      
O           113.38      -12.42      -38.2       
C           110.72      -8.34       -34.57      
C           113.49      -11.0       -40.48      
H           114.53694   -10.78916   -40.26189   
H           113.25      -10.47      -41.37      
H           113.42      -12.06      -40.69      
H           111.43      -8.31       -33.69      
H           109.71489   -8.67738    -34.31697   
H           110.7       -7.28       -34.76      
N           111.18      -9.02       -35.72      
C           112.25      -10.43      -37.17      
C           111.9       -10.24      -35.87      
C           110.16      -7.65       -42.04      
C           110.51      -6.71       -41.09      
S           110.87      -9.2        -41.7       
H           111.74      -6.64       -39.18      
H           110.34      -5.66       -41.13      
C           111.29      -7.25       -40.05      
C           111.54      -8.6        -40.22      
C           108.21      -8.02       -45.32      
C           107.9       -6.78       -44.86      
S           109.44      -8.71       -44.36      
H           108.19      -5.79       -42.87      
H           107.18      -6.1        -45.35      
C           108.44      -6.6        -43.51      
C           109.41      -7.49       -43.18      
C           107.13      -10.51      -48.16      
C           106.74      -9.24       -48.49      
S           107.87      -10.4       -46.55      
H           107.01      -7.17       -47.81      
H           106.15      -9.04       -49.41      
C           107.2       -8.25       -47.64      
C           107.77      -8.7        -46.49      
C           104.81      -13.53      -50.93      
C           105.87      -13.34      -50.08      
N           104.18      -12.34      -51.11      
C           104.69      -11.32      -50.22      
C           107.03      -13.91      -49.45      
O           107.45      -15.03      -49.53      
O           104.18      -10.28      -50.08      
C           108.98      -12.86      -48.35      
C           103.41      -11.93      -52.28      
H           104.14119   -11.7472    -53.06743   
H           102.73      -12.7       -52.65      
H           102.79      -10.99      -52.13      
H           109.19      -12.38      -47.39      
H           109.65038   -12.388     -49.06826   
H           109.2       -13.93      -48.25      
N           107.59      -12.86      -48.69      
C           105.86      -11.99      -49.6       
C           106.81      -11.78      -48.68      
C           103.71      -16.79      -52.85      
C           105.09      -16.83      -52.65      
S           103.04      -15.29      -52.21      
H           106.59      -15.66      -51.65      
H           105.79      -17.53      -53.05      
C           105.56      -15.77      -51.87      
C           104.58      -14.76      -51.65      
C           102.09      -18.91      -55.7       
C           101.21      -18.84      -54.62      
S           103.45      -17.93      -55.3       
H           101.04      -18.02      -52.69      
H           100.22      -19.41      -54.66      
C           101.62      -18.1       -53.54      
C           102.94      -17.7       -53.67      
C           102.21      -20.52      -59.23      
C           101.13      -21.02      -58.52      
S           102.93      -19.28      -58.31      
H           100.01      -20.54      -56.63      
H           100.53      -21.8       -58.84      
C           100.91      -20.37      -57.26      
C           101.85      -19.46      -56.98      
C           102.8       -23.9       -62.7       
C           103.1       -22.63      -62.26      
N           101.98      -24.54      -61.79      
C           101.64      -23.64      -60.71      
C           103.83      -21.41      -62.56      
O           104.55      -21.07      -63.51      
O           100.81      -23.88      -59.81      
C           104.23      -19.2       -61.41      
C           101.89      -25.99      -61.72      
H           101.97626   -26.34222   -60.69209   
H           102.57      -26.51      -62.37      
H           100.88      -26.21      -62.05      
H           104.39      -18.98      -60.39      
H           103.55133   -18.48599   -61.87658   
H           105.18      -19.4       -61.8       
N           103.56      -20.52      -61.39      
C           102.4       -22.4       -60.98      
C           102.71      -21.15      -60.44      
C           103.6       -25.54      -66.32      
C           104.52      -24.64      -66.06      
S           102.42      -25.55      -65.04      
H           104.94      -23.23      -64.4       
H           105.24      -24.27      -66.79      
C           104.31      -24.04      -64.78      
C           103.29      -24.5       -64.01      
C           103.36      -26.91      -69.92      
C           102.73      -27.8       -69.11      
S           104.02      -25.61      -68.95      
H           102.11      -28.0       -67.02      
H           102.22      -28.64      -69.62      
C           102.65      -27.37      -67.78      
C           103.35      -26.24      -67.51      
C           104.12      -26.39      -73.69      
C           104.15      -27.76      -73.42      
S           103.42      -25.6       -72.32      
H           103.9       -29.11      -71.62      
H           104.45      -28.42      -74.17      
C           103.89      -28.12      -72.04      
C           103.51      -27.0       -71.32      
H           26.88       14.62       6.96        
H           103.96      -26.13      -74.76      
