392

C           55.54       41.41       19.72       
C           55.95       41.87       20.95       
N           55.06       42.53       19.01       
C           55.12       43.75       19.78       
C           56.47       41.41       22.27       
O           56.75       40.3        22.7        
O           54.81       44.95       19.44       
C           57.18       42.69       24.31       
C           54.15       42.5        17.82       
H           53.12673    42.6932     18.14201    
H           54.07       41.6        17.26       
H           54.39       43.3        17.06       
H           56.42       42.88       25.06       
H           58.01942    43.38216    24.37627    
H           57.58       41.71       24.48       
N           56.6        42.66       22.98       
C           55.69       43.27       21.03       
C           56.08       43.76       22.22       
C           56.01       37.87       18.02       
C           55.81       37.71       19.33       
S           55.72       39.56       17.57       
H           55.62       39.03       21.09       
H           55.9        36.75       19.88       
C           55.59       38.95       20.01       
C           55.47       40.06       19.23       
C           57.4        35.61       15.14       
C           56.41       34.89       15.75       
S           57.43       37.26       15.81       
H           54.79       35.19       17.2        
H           56.16       33.85       15.48       
C           55.67       35.68       16.77       
C           56.32       36.83       17.07       
C           60.2        35.65       12.33       
C           60.15       34.36       12.84       
S           58.99       36.65       13.18       
H           59.07       33.32       14.45       
H           60.89       33.65       12.5        
C           59.18       34.21       13.83       
C           58.44       35.31       14.13       
C           64.68       36.38       10.66       
C           63.36       36.65       10.54       
N           64.84       35.32       11.63       
C           63.53       34.97       12.16       
C           62.39       37.43       9.79        
O           62.46       38.27       8.89        
O           63.25       34.18       13.0        
C           60.0        37.84       10.1        
C           66.03       34.66       12.18       
H           66.0154     34.47017    13.25324    
H           66.98       35.17       12.0        
H           66.2        33.71       11.77       
H           59.54       38.32       10.99       
H           59.3315     37.22076    9.50187     
H           60.32       38.61       9.38        
N           61.15       37.16       10.52       
C           62.6        35.79       11.42       
C           61.29       36.2        11.56       
C           67.85       37.85       8.72        
C           66.78       38.75       8.63        
S           67.32       36.52       9.7         
H           64.6        38.82       9.19        
H           66.85       39.68       8.18        
C           65.58       38.3        9.22        
C           65.7        37.16       10.01       
C           71.16       38.86       6.82        
C           71.46       37.84       7.61        
S           69.54       39.39       7.14        
H           70.58       36.5        9.09        
H           72.46       37.43       7.62        
C           70.43       37.41       8.47        
C           69.24       38.02       8.2         
C           73.17       40.69       3.89        
C           73.93       39.74       4.46        
S           71.61       40.65       4.62        
H           73.92       38.54       6.35        
H           74.97       39.55       4.13        
C           73.38       39.14       5.65        
C           72.07       39.49       5.86        
C           76.07       42.28       0.45        
C           74.9        42.48       1.22        
N           76.45       41.0        0.68        
C           75.5        40.3        1.55        
C           73.86       43.43       1.49        
O           73.65       44.57       1.12        
O           75.56       39.07       1.79        
C           71.77       43.41       2.87        
C           77.65       40.42       0.16        
H           78.19583    39.81119    0.88078     
H           78.43       41.14       -0.11       
H           77.3        39.75       -0.66       
H           71.43       43.11       3.85        
H           71.05508    43.2641     2.06024     
H           71.9        44.45       2.93        
N           73.01       42.78       2.5         
C           74.57       41.31       1.99        
C           73.48       41.54       2.76        
C           77.89       44.42       -2.41       
C           77.4        45.29       -1.46       
S           77.5        42.81       -1.97       
H           76.13       45.07       0.34        
H           77.53       46.36       -1.53       
C           76.6        44.62       -0.5        
C           76.69       43.26       -0.44       
C           80.45       45.77       -4.95       
C           80.28       44.42       -5.22       
S           79.28       46.31       -3.81       
H           79.08       42.73       -4.31       
H           80.94       43.83       -5.87       
C           79.37       43.77       -4.34       
C           78.77       44.68       -3.47       
C           82.67       48.61       -6.38       
C           82.83       47.49       -7.07       
S           81.47       48.25       -5.16       
H           82.23       45.32       -7.07       
H           83.34       47.53       -8.03       
C           82.18       46.3        -6.59       
C           81.32       46.62       -5.63       
C           85.93       51.39       -8.62       
C           84.89       51.31       -7.67       
N           86.4        50.03       -8.83       
C           85.55       49.04       -8.19       
C           83.9        52.14       -6.99       
O           83.56       53.38       -7.06       
O           85.6        47.83       -8.34       
C           81.8        51.47       -5.71       
C           87.65       49.48       -9.39       
H           88.31968    49.32492    -8.54408    
H           88.12       50.22       -10.07      
H           87.5        48.54       -9.91       
H           81.54       50.84       -4.89       
H           80.9346     51.51221    -6.37136    
H           81.88       52.43       -5.31       
N           83.05       51.08       -6.33       
C           84.56       49.9        -7.48       
C           83.46       49.81       -6.65       
C           87.49       54.41       -10.51      
C           86.9        54.79       -9.37       
S           87.39       52.64       -10.72      
H           86.04       53.8        -7.51       
H           86.79       55.87       -9.1        
C           86.5        53.71       -8.51       
C           86.7        52.48       -9.09       
C           88.51       56.08       -13.84      
C           87.91       57.06       -13.11      
S           88.76       54.58       -12.98      
H           86.82       57.08       -11.15      
H           87.66       57.98       -13.5       
C           87.46       56.48       -11.86      
C           87.88       55.21       -11.64      
C           89.19       55.55       -17.66      
C           89.14       56.86       -17.46      
S           88.77       54.69       -16.12      
H           88.75       58.23       -15.66      
H           89.33       57.52       -18.26      
C           88.8        57.23       -16.1       
C           88.64       56.15       -15.28      
C           89.9        55.42       -22.47      
C           89.96       54.8        -21.22      
N           89.11       56.5        -22.26      
C           88.89       56.8        -20.88      
C           90.34       53.55       -20.57      
O           90.81       52.46       -20.99      
O           88.23       57.75       -20.54      
C           90.24       52.62       -18.27      
C           88.28       57.11       -23.32      
H           87.21011    57.06633    -23.11621   
H           88.39       56.5        -24.19      
H           88.62       58.12       -23.57      
H           89.34       52.4        -17.68      
H           91.05909    52.82477    -17.5806    
H           90.47       51.75       -18.92      
N           90.06       53.71       -19.16      
C           89.4        55.62       -20.18      
C           89.5        54.98       -18.99      
C           90.67       53.26       -25.67      
C           90.92       54.59       -25.85      
S           90.21       53.1        -24.01      
H           90.88       56.48       -24.74      
H           91.32       55.07       -26.75      
C           90.73       55.43       -24.76      
C           90.23       54.82       -23.68      
C           92.29       50.54       -28.14      
C           91.38       49.95       -27.32      
S           92.32       52.25       -27.8       
H           89.85       50.52       -25.92      
H           91.28       48.87       -27.36      
C           90.65       50.87       -26.51      
C           91.04       52.19       -26.53      
C           94.32       49.45       -31.21      
C           94.14       48.36       -30.4       
S           93.65       50.8        -30.42      
H           93.09       47.97       -28.5       
H           94.56       47.35       -30.7       
C           93.44       48.65       -29.27      
C           93.16       49.9        -29.04      
C           98.03       48.71       -34.34      
C           96.83       49.36       -33.99      
N           98.2        47.72       -33.38      
C           97.1        47.66       -32.37      
C           95.86       50.27       -34.53      
O           95.81       51.01       -35.61      
O           97.12       47.04       -31.34      
C           93.59       51.17       -33.85      
C           99.29       46.88       -33.1       
H           99.05431    45.81581    -33.09286   
H           99.76       47.11       -32.1       
H           100.07      47.09       -33.83      
H           93.19       51.73       -33.01      
H           92.82257    50.60864    -34.38294   
H           93.94       51.93       -34.47      
N           94.83       50.36       -33.54      
C           96.28       48.84       -32.79      
C           95.21       49.66       -32.38      
C           100.58      49.38       -37.24      
C           99.74       50.42       -37.24      
S           100.22      48.17       -36.09      
H           98.15       51.1        -35.88      
H           99.73       51.21       -37.99      
C           98.86       50.31       -36.1       
C           99.02       49.17       -35.35      
C           103.88      49.28       -39.54      
C           103.61      48.01       -39.11      
S           102.53      50.29       -39.06      
H           102.18      46.98       -37.83      
H           104.25      47.14       -39.34      
C           102.39      47.92       -38.35      
C           101.68      49.07       -38.2       
C           107.58      49.85       -40.57      
C           106.83      50.78       -41.3       
S           106.58      48.68       -39.71      
H           104.74      51.25       -41.41      
H           107.32      51.5        -41.99      
C           105.46      50.61       -41.03      
C           105.16      49.61       -40.14      
C           111.69      49.69       -43.1       
C           111.09      49.5        -41.89      
N           110.75      50.06       -44.08      
C           109.44      50.21       -43.43      
C           111.3       49.14       -40.53      
O           112.3       48.7        -39.98      
O           108.39      50.34       -43.99      
C           109.83      48.42       -38.69      
C           110.97      50.54       -45.45      
H           111.1549    51.61383    -45.47845   
H           110.11      50.27       -46.07      
H           111.94      50.07       -45.79      
H           108.85      47.91       -38.71      
H           109.88009   49.15706    -37.88854   
H           110.6       47.69       -38.59      
N           110.02      49.07       -39.95      
C           109.69      49.87       -41.97      
C           109.05      49.67       -40.76      
C           115.22      48.3        -43.92      
C           115.23      48.74       -42.65      
S           113.72      48.61       -44.74      
H           113.78      49.72       -41.36      
H           116.03      48.65       -41.9       
C           114.04      49.38       -42.32      
C           113.09      49.33       -43.31      
C           117.93      47.02       -46.47      
C           118.49      47.01       -45.27      
S           116.33      47.59       -46.33      
H           117.78      47.27       -43.09      
H           119.44      46.57       -45.12      
C           117.61      47.39       -44.2       
C           116.36      47.72       -44.62      
C           119.47      46.45       -50.0       
C           118.14      46.18       -50.07      
S           119.85      47.06       -48.42      
H           116.39      45.97       -48.65      
H           117.72      45.81       -50.98      
C           117.49      46.25       -48.78      
C           118.29      46.7        -47.78      
C           120.95      44.51       -54.2       
C           121.21      45.43       -53.2       
N           119.77      43.87       -53.96      
C           119.34      44.14       -52.6       
C           122.12      46.47       -52.66      
O           123.2       46.99       -52.99      
O           118.37      43.6        -52.14      
C           121.99      48.09       -50.81      
C           118.81      43.25       -54.85      
H           117.97092   43.9128     -55.06153   
H           118.45      42.3        -54.46      
H           119.31      43.09       -55.86      
H           121.73      48.07       -49.73      
H           121.57038   48.99116    -51.25714   
H           123.07      48.11       -50.98      
N           121.47      46.85       -51.42      
C           120.2       45.22       -52.17      
C           120.37      46.1        -51.07      
C           122.96      43.4        -57.45      
C           123.35      44.64       -57.12      
S           121.84      42.87       -56.28      
H           122.83      46.17       -55.56      
H           124.17      45.14       -57.58      
C           122.6       45.23       -56.02      
C           121.65      44.38       -55.46      
C           123.67      41.22       -60.53      
C           124.92      41.67       -60.09      
S           122.37      41.76       -59.49      
H           125.66      42.99       -58.49      
H           125.85      41.4        -60.55      
C           124.79      42.53       -58.96      
C           123.49      42.63       -58.53      
C           121.97      39.23       -63.41      
C           123.35      39.14       -63.6       
S           121.63      40.19       -62.05      
H           125.19      39.8        -62.63      
H           123.78      38.49       -64.35      
C           124.15      39.8        -62.61      
C           123.33      40.47       -61.7       
C           120.58      37.31       -67.58      
C           120.2       37.83       -66.37      
N           121.9       37.74       -67.8       
C           122.46      38.42       -66.66      
C           119.07      37.98       -65.5       
O           117.85      37.87       -65.65      
O           123.59      38.99       -66.66      
C           118.82      38.38       -63.08      
C           122.69      37.64       -68.98      
H           122.42287   38.39084    -69.72362   
H           123.78      37.83       -68.72      
H           122.67      36.62       -69.34      
H           119.07      39.23       -62.41      
H           118.7676    37.45174    -62.51107   
H           117.82      38.64       -63.48      
N           119.69      38.35       -64.24      
C           121.35      38.4        -65.69      
C           121.05      38.69       -64.37      
C           118.91      34.41       -69.63      
C           118.36      34.52       -68.41      
S           120.12      35.59       -69.88      
H           118.44      35.95       -66.74      
H           117.55      33.97       -68.07      
C           118.86      35.61       -67.68      
C           119.93      36.2        -68.26      
C           116.79      32.52       -72.16      
C           117.97      32.8        -72.79      
S           116.84      32.95       -70.47      
H           119.78      33.93       -72.29      
H           118.16      32.62       -73.85      
C           118.83      33.52       -72.0       
C           118.42      33.65       -70.74      
C           113.63      31.33       -74.07      
C           113.23      31.76       -72.82      
S           115.39      31.23       -74.11      
H           114.23      32.63       -71.04      
H           112.17      31.79       -72.44      
C           114.31      32.3        -72.05      
C           115.51      32.11       -72.64      
C           109.72      28.67       -74.96      
C           110.86      29.27       -75.37      
N           109.69      28.99       -73.57      
C           110.95      29.53       -73.09      
C           111.55      29.56       -76.56      
O           111.38      29.26       -77.71      
O           111.18      29.6        -71.89      
C           113.39      31.03       -77.24      
C           108.46      29.39       -72.92      
H           108.39481   30.4765     -72.97795   
H           108.53      29.1        -71.88      
H           107.54      28.9        -73.44      
H           114.47      30.91       -76.96      
H           113.15559   32.08841    -77.35365   
H           113.28      30.44       -78.14      
N           112.61      30.43       -76.21      
C           111.64      29.88       -74.3       
C           112.73      30.51       -74.83      
C           106.87      26.26       -76.29      
C           107.42      26.99       -77.35      
S           107.89      26.51       -74.92      
H           109.11      28.55       -77.64      
H           107.06      26.86       -78.35      
C           108.54      27.86       -76.99      
C           108.71      27.91       -75.64      
C           104.34      23.42       -75.56      
C           103.73      24.25       -76.51      
S           105.79      24.13       -74.94      
H           104.44      26.03       -77.7       
H           102.69      24.09       -76.85      
C           104.64      25.29       -76.94      
C           105.81      25.32       -76.23      
C           102.7       20.16       -74.02      
C           103.69      20.6        -73.17      
S           102.59      21.17       -75.43      
H           105.12      22.36       -73.16      
H           103.99      20.13       -72.18      
C           104.33      21.76       -73.66      
C           103.82      22.23       -74.88      
H           55.89       44.77       22.6        
H           101.86      19.43       -73.75      
