392

C           73.98       17.97       8.03        
C           73.95       17.74       9.38        
N           73.7        16.78       7.4         
C           73.61       15.67       8.32        
C           74.04       18.32       10.69       
O           74.21       19.44       11.03       
O           73.36       14.52       7.93        
C           73.95       17.39       13.01       
C           73.76       16.39       6.02        
H           74.7132     15.90629    5.8066      
H           73.62       17.3        5.4         
H           72.87       15.75       5.8         
H           74.85       16.96       13.42       
H           73.0838     16.91186    13.46735    
H           73.97       18.47       13.2        
N           73.89       17.21       11.59       
C           73.81       16.31       9.61        
C           73.78       16.02       10.96       
C           73.89       21.4        6.29        
C           74.61       21.55       7.41        
S           73.39       19.74       6.05        
H           75.17       20.17       9.18        
H           75.01       22.47       7.69        
C           74.66       20.33       8.2         
C           74.18       19.25       7.49        
C           72.86       23.54       3.24        
C           73.79       24.24       3.9         
S           72.53       22.02       4.02        
H           74.63       24.12       5.95        
H           74.21       25.19       3.55        
C           74.01       23.65       5.16        
C           73.57       22.37       5.3         
C           71.84       24.77       -0.23       
C           70.78       24.02       0.29        
S           73.13       24.73       0.89        
H           70.39       22.78       2.1         
H           69.94       23.79       -0.24       
C           71.04       23.46       1.58        
C           72.23       23.88       2.07        
C           70.62       24.88       -4.87       
C           71.34       25.43       -3.8        
N           69.79       23.91       -4.33       
C           70.17       23.56       -2.99       
C           72.27       26.47       -3.5        
O           72.79       27.34       -4.18       
O           69.84       22.54       -2.35       
C           73.53       27.16       -1.54       
C           68.6        23.34       -4.86       
H           67.71222    23.52651    -4.25571    
H           68.63       22.18       -4.94       
H           68.4        23.74       -5.92       
H           74.26       26.59       -0.9        
H           73.03311    28.00976    -1.07191    
H           74.11       27.5        -2.35       
N           72.58       26.27       -2.13       
C           71.09       24.62       -2.61       
C           71.88       25.18       -1.57       
C           71.21       24.91       -8.66       
C           71.67       26.07       -8.2        
S           70.68       23.89       -7.35       
H           71.57       27.13       -6.25       
H           72.01       26.8        -8.93       
C           71.34       26.27       -6.88       
C           70.7        25.21       -6.26       
C           72.26       23.3        -12.12      
C           70.94       23.24       -11.94      
S           72.93       24.09       -10.72      
H           69.4        23.9        -10.45      
H           70.24       22.81       -12.6       
C           70.39       23.91       -10.8       
C           71.34       24.4        -10.01      
C           74.85       22.12       -14.82      
C           73.59       22.19       -15.38      
S           74.66       22.61       -13.15      
H           71.48       22.46       -14.73      
H           73.39       21.66       -16.34      
C           72.55       22.55       -14.46      
C           72.98       22.87       -13.25      
C           77.53       19.38       -17.68      
C           77.42       20.21       -16.63      
N           76.21       18.92       -17.91      
C           75.22       19.72       -17.16      
C           78.27       21.0        -15.77      
O           79.52       21.09       -15.59      
O           74.01       19.59       -17.11      
C           77.9        22.83       -14.19      
C           75.69       17.75       -18.62      
H           74.92414    18.00997    -19.35073   
H           75.5        16.89       -17.93      
H           76.5        17.32       -19.21      
H           77.25       22.97       -13.32      
H           78.11978    23.75167    -14.72882   
H           78.81       22.41       -13.8       
N           77.33       21.82       -15.03      
C           76.05       20.59       -16.36      
C           76.02       21.47       -15.35      
C           80.39       17.49       -19.61      
C           80.89       18.09       -18.5       
S           78.79       18.0        -19.82      
H           80.15       19.35       -16.83      
H           81.88       17.9        -18.11      
C           79.95       18.85       -17.77      
C           78.71       18.77       -18.22      
C           81.18       14.75       -22.5       
C           81.81       14.31       -21.29      
S           80.58       16.41       -22.23      
H           81.9        15.12       -19.15      
H           82.37       13.34       -21.08      
C           81.59       15.26       -20.21      
C           80.87       16.42       -20.48      
C           82.13       12.87       -25.76      
C           81.46       14.0        -26.16      
S           82.16       12.72       -24.01      
H           80.46       15.69       -25.22      
H           81.42       14.35       -27.24      
C           80.97       14.72       -25.04      
C           81.31       14.25       -23.81      
C           83.12       10.57       -29.9       
C           83.47       10.84       -28.59      
N           82.14       11.54       -30.25      
C           81.64       12.09       -29.05      
C           84.47       10.55       -27.58      
O           85.37       9.77        -27.46      
O           80.6        12.65       -29.01      
C           84.71       11.18       -25.17      
C           81.79       12.21       -31.5       
H           81.85265    13.29597    -31.43039   
H           80.79       11.92       -31.82      
H           82.54       11.98       -32.26      
H           84.13       11.22       -24.22      
H           85.51244    11.91738    -25.14831   
H           85.3        10.22       -25.2       
N           83.88       11.2        -26.39      
C           82.5        11.75       -27.99      
C           82.74       11.96       -26.66      
C           85.43       8.1         -32.02      
C           84.36       8.48        -32.8       
S           85.26       8.69        -30.43      
H           82.56       9.74        -32.52      
H           84.21       8.12        -33.85      
C           83.42       9.29        -32.06      
C           83.81       9.58        -30.76      
C           88.09       5.65        -33.76      
C           88.65       6.36        -32.75      
S           86.5        6.29        -33.96      
H           88.04       7.8         -31.05      
H           89.64       6.06        -32.47      
C           87.76       7.18        -31.94      
C           86.53       7.26        -32.47      
C           90.07       2.84        -35.76      
C           88.72       2.5         -35.73      
S           90.29       4.36        -34.9       
H           86.86       3.46        -34.92      
H           88.25       1.71        -36.34      
C           87.91       3.55        -35.09      
C           88.63       4.64        -34.63      
C           92.24       -1.16       -37.24      
C           92.26       0.21        -37.14      
N           90.99       -1.56       -36.88      
C           90.3        -0.44       -36.18      
C           93.05       1.38        -37.39      
O           94.17       1.61        -37.91      
O           89.25       -0.61       -35.62      
C           92.93       3.82        -37.04      
C           90.06       -2.54       -37.47      
H           89.58196    -2.10477    -38.34759   
H           89.3        -2.89       -36.71      
H           90.61       -3.41       -37.94      
H           92.64       4.57        -36.35      
H           92.73006    4.2056      -38.03972   
H           94.03       3.72        -36.91      
N           92.39       2.46        -36.79      
C           91.09       0.72        -36.49      
C           91.13       2.06        -36.26      
C           94.73       -4.09       -38.32      
C           95.25       -2.87       -38.64      
S           93.06       -3.81       -37.87      
H           94.64       -0.72       -38.46      
H           96.23       -2.89       -39.05      
C           94.44       -1.76       -38.26      
C           93.24       -2.1        -37.69      
C           96.65       -7.46       -38.73      
C           95.39       -7.65       -39.27      
S           96.92       -5.81       -38.31      
H           93.51       -6.36       -39.55      
H           95.02       -8.56       -39.74      
C           94.56       -6.47       -39.2       
C           95.23       -5.44       -38.56      
C           99.45       -10.09      -39.22      
C           99.9        -9.08       -38.44      
S           97.72       -9.9        -39.54      
H           99.21       -7.21       -37.64      
H           100.89      -9.03       -38.02      
C           98.96       -8.09       -38.19      
C           97.8        -8.28       -38.75      
C           103.45      -11.99      -41.05      
C           102.07      -12.14      -40.8       
N           103.9       -11.02      -40.23      
C           102.76      -10.28      -39.67      
C           100.93      -13.02      -41.11      
O           100.88      -14.0       -41.73      
O           102.95      -9.3        -39.01      
C           98.49       -12.87      -40.64      
C           105.16      -10.87      -39.62      
H           105.15301   -11.4502    -38.69728   
H           105.23      -9.76       -39.38      
H           106.05      -11.1       -40.18      
H           97.84       -12.08      -40.86      
H           98.19576    -13.45848   -39.77097   
H           98.47       -13.47      -41.47      
N           99.83       -12.33      -40.49      
C           101.55      -11.05      -40.0       
C           100.22      -11.14      -39.84      
C           105.96      -13.66      -43.63      
C           104.67      -14.12      -43.86      
S           105.92      -12.56      -42.27      
H           102.65      -13.78      -43.06      
H           104.45      -14.82      -44.68      
C           103.76      -13.57      -42.95      
C           104.27      -12.79      -41.99      
C           109.26      -15.2       -44.76      
C           109.4       -13.88      -45.05      
S           107.74      -15.59      -44.05      
H           108.21      -12.16      -44.66      
H           110.28      -13.44      -45.44      
C           108.23      -13.2       -44.69      
C           107.2       -13.98      -44.25      
C           111.36      -18.41      -45.02      
C           112.17      -17.42      -45.56      
S           109.91      -17.83      -44.34      
H           111.82      -15.22      -45.95      
H           113.08      -17.58      -46.09      
C           111.51      -16.16      -45.54      
C           110.26      -16.19      -44.98      
C           113.26      -22.57      -46.49      
C           112.38      -21.95      -45.64      
N           113.83      -21.59      -47.32      
C           113.3       -20.33      -47.03      
C           111.46      -22.11      -44.49      
O           110.98      -23.07      -43.91      
O           113.66      -19.33      -47.64      
C           110.32      -20.6       -42.87      
C           114.87      -21.68      -48.36      
H           114.38343   -21.50111   -49.31883   
H           115.27      -22.65      -48.52      
H           115.72      -21.05      -48.23      
H           109.45      -19.97      -43.13      
H           110.8412    -20.29299   -41.96325   
H           109.94      -21.56      -42.56      
N           111.2       -20.77      -44.09      
C           112.41      -20.47      -45.81      
C           111.62      -19.8       -45.0       
C           113.98      -26.39      -46.89      
C           113.69      -26.15      -45.58      
S           114.09      -24.91      -47.81      
H           113.22      -24.35      -44.31      
H           113.62      -26.76      -44.73      
C           113.51      -24.75      -45.32      
C           113.7       -23.93      -46.43      
C           112.69      -29.46      -48.85      
C           113.79      -29.04      -49.53      
S           112.45      -28.56      -47.37      
H           115.06      -27.3       -49.43      
H           113.94      -29.39      -50.54      
C           114.34      -27.9       -48.93      
C           113.8       -27.59      -47.67      
C           109.23      -31.04      -49.83      
C           110.17      -31.52      -50.72      
S           110.0       -29.98      -48.7       
H           112.32      -31.57      -50.99      
H           109.87      -32.08      -51.64      
C           111.46      -31.16      -50.45      
C           111.58      -30.27      -49.37      
C           104.96      -32.52      -51.58      
C           105.7       -32.1       -50.52      
N           105.86      -32.74      -52.64      
C           107.17      -32.27      -52.31      
C           105.62      -31.74      -49.11      
O           104.7       -31.77      -48.29      
O           108.11      -32.28      -53.04      
C           107.26      -31.0       -47.34      
C           105.79      -33.77      -53.69      
H           106.25285   -34.70318   -53.36899   
H           106.34      -33.46      -54.58      
H           104.76      -34.1       -53.84      
H           108.09      -30.36      -47.26      
H           107.44441   -31.88105   -46.72531   
H           106.33      -30.53      -47.02      
N           106.94      -31.29      -48.75      
C           107.07      -31.88      -50.92      
C           107.8       -31.36      -49.91      
C           101.46      -34.35      -51.7       
C           101.99      -34.37      -50.4       
S           102.53      -33.35      -52.67      
H           103.88      -33.7       -49.34      
H           101.44      -34.84      -49.6       
C           103.23      -33.71      -50.29      
C           103.73      -33.22      -51.47      
C           98.84       -36.89      -52.65      
C           98.59       -35.81      -53.49      
S           100.06      -36.51      -51.55      
H           99.68       -33.85      -53.85      
H           97.88       -35.81      -54.33      
C           99.56       -34.75      -53.26      
C           100.28      -35.01      -52.2       
C           97.91       -40.5       -53.95      
C           98.54       -40.57      -52.78      
S           97.7        -38.83      -54.25      
H           99.72       -39.43      -51.43      
H           98.89       -41.51      -52.4       
C           98.92       -39.37      -52.15      
C           98.49       -38.33      -52.8       
C           98.78       -44.62      -56.19      
C           98.05       -43.49      -56.05      
N           99.6        -44.65      -55.03      
C           99.4        -43.52      -54.12      
C           97.05       -42.72      -56.77      
O           96.48       -43.0       -57.8       
O           100.13      -43.36      -53.2       
C           95.8        -40.62      -56.29      
C           100.64      -45.65      -54.69      
H           100.30048   -46.33598   -53.91395   
H           101.02      -46.19      -55.55      
H           101.54      -45.22      -54.2       
H           96.13       -39.61      -56.31      
H           94.84159    -40.74592   -55.78631   
H           95.56       -40.76      -57.34      
N           96.8        -41.57      -55.94      
C           98.38       -42.76      -54.81      
C           97.71       -41.56      -54.86      
C           99.44       -47.09      -59.17      
C           99.08       -45.85      -59.66      
S           99.22       -47.09      -57.44      
H           98.76       -43.87      -58.76      
H           98.99       -45.67      -60.74      
C           98.97       -44.91      -58.59      
C           99.14       -45.38      -57.37      
C           99.98       -50.17      -61.36      
C           99.39       -50.65      -60.25      
S           100.14      -48.46      -61.4       
H           98.57       -49.72      -58.43      
H           99.15       -51.67      -60.04      
C           99.09       -49.54      -59.38      
C           99.53       -48.35      -59.8       
C           101.48      -52.48      -64.14      
C           101.23      -51.24      -64.74      
S           100.68      -52.56      -62.61      
H           100.55      -49.31      -63.95      
H           101.67      -50.92      -65.71      
C           100.7       -50.37      -63.78      
C           100.42      -50.87      -62.54      
C           102.71      -55.71      -67.5       
C           102.81      -55.32      -66.19      
N           101.79      -54.89      -68.13      
C           101.53      -53.78      -67.29      
C           103.49      -55.56      -64.94      
O           104.3       -56.34      -64.58      
O           100.89      -52.84      -67.6       
C           103.7       -54.29      -62.71      
C           100.75      -55.25      -69.05      
H           99.75863    -55.50133   -68.673     
H           101.11      -56.11      -69.71      
H           100.61      -54.4       -69.72      
H           102.97      -54.14      -61.93      
H           104.39056   -53.44679   -62.72454   
H           104.14      -55.23      -62.36      
N           103.12      -54.43      -64.08      
C           102.05      -54.1       -65.98      
C           102.15      -53.64      -64.69      
C           104.69      -58.52      -69.53      
C           104.88      -58.68      -68.22      
S           103.65      -57.15      -69.81      
H           104.22      -57.67      -66.31      
H           105.68      -59.33      -67.79      
C           104.09      -57.79      -67.37      
C           103.37      -56.83      -68.12      
C           106.28      -59.27      -73.05      
C           107.26      -59.62      -72.05      
S           104.9       -58.64      -72.23      
H           107.4       -59.73      -69.77      
H           108.22      -59.93      -72.29      
C           106.83      -59.46      -70.69      
C           105.54      -58.95      -70.62      
C           107.11      -59.55      -76.86      
C           105.76      -59.29      -76.75      
S           107.87      -59.65      -75.29      
H           104.35      -59.08      -75.21      
H           105.15      -59.22      -77.63      
C           105.39      -59.18      -75.4       
C           106.39      -59.32      -74.45      
H           74.17       15.1        11.38       
H           107.66      -59.77      -77.79      
