392

C           56.98       36.76       13.45       
C           56.97       36.8        14.86       
N           56.29       35.65       12.98       
C           56.02       34.76       14.08       
C           57.32       37.58       16.04       
O           57.77       38.69       16.17       
O           55.4        33.7        13.94       
C           56.38       37.35       18.36       
C           56.4        34.96       11.75       
H           57.24562    34.27512    11.6871     
H           56.63       35.64       11.02       
H           55.5        34.4        11.37       
H           56.64       36.73       19.23       
H           55.32221    37.61262    18.34541    
H           56.98       38.22       18.53       
N           56.83       36.69       17.16       
C           56.32       35.59       15.26       
C           56.23       35.55       16.58       
C           57.88       39.59       10.89       
C           58.53       39.87       12.07       
S           57.0        38.09       11.0        
H           58.71       38.72       13.96       
H           59.14       40.74       12.23       
C           58.36       38.79       12.99       
C           57.56       37.76       12.58       
C           57.36       42.4        8.22        
C           57.16       41.21       7.6         
S           58.01       42.17       9.85        
H           57.08       39.11       8.23        
H           56.92       41.08       6.58        
C           57.31       40.11       8.51        
C           57.67       40.47       9.77        
C           57.49       45.64       5.95        
C           57.2        46.0        7.26        
S           57.55       43.88       5.87        
H           56.82       44.91       9.17        
H           57.31       46.99       7.58        
C           57.05       44.85       8.16        
C           57.32       43.69       7.58        
C           57.62       49.96       3.79        
C           57.7        48.56       3.66        
N           57.16       50.17       5.08        
C           57.06       49.02       5.85        
C           58.13       47.45       2.73        
O           58.6        47.42       1.56        
O           56.52       49.13       6.99        
C           58.8        45.08       3.09        
C           56.64       51.41       5.69        
H           55.59218    51.56548    5.43311     
H           57.09       52.27       5.26        
H           56.87       51.44       6.78        
H           58.19       44.22       3.26        
H           59.77007    44.841      3.52583     
H           58.84       45.07       2.04        
N           58.19       46.33       3.61        
C           57.47       47.95       4.93        
C           57.67       46.57       4.85        
C           57.66       51.77       0.34        
C           58.23       52.63       1.27        
S           57.15       50.33       1.09        
H           58.45       52.51       3.57        
H           58.73       53.56       1.0         
C           58.06       52.12       2.65        
C           57.62       50.85       2.69        
C           58.08       52.75       -3.48       
C           57.4        51.56       -3.48       
S           58.3        53.34       -1.88       
H           56.6        50.22       -1.92       
H           57.15       51.03       -4.45       
C           57.14       51.09       -2.16       
C           57.7        51.9        -1.16       
C           58.97       55.56       -6.06       
C           58.49       54.51       -6.73       
S           59.05       55.21       -4.37       
H           57.52       52.51       -6.2        
H           58.29       54.52       -7.78       
C           58.04       53.43       -5.85       
C           58.33       53.69       -4.51       
C           61.21       57.91       -9.43       
C           60.38       57.97       -8.31       
N           61.21       56.57       -9.85       
C           60.54       55.75       -8.89       
C           59.86       58.89       -7.35       
O           59.71       60.04       -7.38       
O           60.62       54.49       -8.94       
C           58.24       58.42       -5.38       
C           61.91       55.99       -10.96      
H           61.22503    55.52134    -11.6666    
H           62.55       55.18       -10.6       
H           62.61       56.67       -11.5       
H           58.52       57.95       -4.44       
H           57.20382    58.28328    -5.68942    
H           58.34       59.47       -5.23       
N           59.24       58.02       -6.4        
C           60.15       56.64       -7.87       
C           59.56       56.7        -6.64       
C           63.37       60.84       -10.92      
C           62.16       61.3        -10.52      
S           63.48       59.1        -10.58      
H           60.27       60.49       -9.58       
H           61.85       62.36       -10.57      
C           61.25       60.28       -9.93       
C           61.78       59.04       -10.09      
C           66.83       62.31       -11.87      
C           66.0        63.37       -11.91      
S           66.02       60.82       -11.48      
H           63.78       63.54       -11.84      
H           66.31       64.41       -12.24      
C           64.69       62.98       -11.58      
C           64.51       61.66       -11.35      
C           70.47       63.01       -12.99      
C           70.2        61.77       -13.39      
S           69.19       63.69       -12.09      
H           68.6        60.29       -13.19      
H           70.93       61.24       -13.94      
C           68.9        61.31       -13.05      
C           68.19       62.29       -12.34      
C           75.2        63.72       -13.71      
C           73.94       64.22       -13.57      
N           75.15       62.35       -13.41      
C           73.75       61.97       -13.33      
C           73.22       65.45       -13.48      
O           73.52       66.61       -13.41      
O           73.46       60.83       -13.18      
C           70.75       66.12       -13.37      
C           76.15       61.42       -12.92      
H           76.03334    61.25959    -11.8482    
H           77.13       61.99       -13.06      
H           76.32       60.54       -13.57      
H           69.96       65.94       -12.74      
H           70.40442    66.21168    -14.39969   
H           71.22       66.95       -12.92      
N           71.81       65.08       -13.25      
C           73.0        63.16       -13.26      
C           71.75       63.7        -13.12      
C           78.41       65.48       -15.17      
C           77.74       66.35       -14.43      
S           77.59       63.96       -15.12      
H           75.83       66.4        -13.26      
H           78.08       67.33       -14.37      
C           76.55       65.8        -13.83      
C           76.4        64.49       -13.99      
C           81.58       65.61       -17.31      
C           81.36       66.9        -16.86      
S           80.32       64.53       -16.77      
H           79.88       67.94       -15.66      
H           82.03       67.69       -17.03      
C           80.22       66.98       -16.08      
C           79.59       65.81       -15.9       
C           84.99       64.66       -18.88      
C           84.19       63.57       -18.85      
S           84.15       65.98       -18.08      
H           82.09       63.06       -18.37      
H           84.49       62.61       -19.32      
C           82.85       63.82       -18.44      
C           82.72       65.04       -18.01      
C           89.49       62.94       -19.45      
C           88.66       64.01       -19.31      
N           88.71       61.81       -19.39      
C           87.32       62.2        -19.37      
C           88.62       65.48       -19.39      
O           89.47       66.34       -19.42      
O           86.38       61.4        -19.57      
C           86.74       67.25       -19.28      
C           88.92       60.39       -19.17      
H           88.81477    60.03222    -18.14578   
H           89.92       60.1        -19.58      
H           88.22       59.73       -19.7       
H           86.13       67.58       -18.41      
H           86.3504     67.46567    -20.27488   
H           87.7        67.77       -19.0       
N           87.21       65.82       -19.21      
C           87.29       63.61       -19.29      
C           86.42       64.67       -19.12      
C           93.3        62.56       -20.42      
C           93.06       63.76       -19.89      
S           91.8        61.68       -20.33      
H           91.36       64.87       -19.01      
H           93.87       64.48       -19.7       
C           91.7        64.04       -19.57      
C           90.9        62.96       -19.67      
C           96.97       61.43       -20.55      
C           96.34       60.67       -21.53      
S           95.92       62.67       -20.02      
H           94.24       60.47       -22.34      
H           96.87       59.85       -21.99      
C           94.96       61.03       -21.69      
C           94.54       61.99       -20.83      
C           100.46      61.06       -18.7       
C           100.15      59.97       -19.43      
S           99.23       62.24       -19.04      
H           98.5        59.05       -20.42      
H           100.66      59.04       -19.28      
C           98.88       59.94       -19.99      
C           98.23       61.15       -19.96      
C           104.74      60.24       -16.56      
C           103.64      61.0        -16.72      
N           104.46      59.0        -17.13      
C           103.21      59.05       -17.83      
C           103.13      62.32       -16.45      
O           103.48      63.28       -15.75      
O           102.81      58.11       -18.48      
C           101.1       63.65       -16.84      
C           104.84      57.67       -16.7       
H           104.15761   57.3755     -15.90268   
H           105.86      57.61       -16.36      
H           104.92      57.0        -17.55      
H           100.06      63.44       -16.78      
H           101.45211   64.56135    -17.32329   
H           101.28      63.83       -15.81      
N           101.93      62.44       -17.18      
C           102.74      60.43       -17.65      
C           101.68      61.29       -17.93      
C           108.14      60.78       -14.67      
C           107.24      61.73       -14.25      
S           107.41      59.67       -15.81      
H           105.25      62.28       -14.71      
H           107.49      62.49       -13.49      
C           106.01      61.64       -14.9       
C           105.9       60.55       -15.74      
C           111.8       59.42       -14.27      
C           111.72      60.53       -13.47      
S           110.24      59.07       -14.94      
H           110.12      61.93       -12.76      
H           112.59      60.94       -12.91      
C           110.41      61.11       -13.39      
C           109.55      60.53       -14.32      
C           114.48      56.82       -15.54      
C           114.75      57.03       -14.23      
S           113.42      58.1        -16.07      
H           113.8       58.18       -12.56      
H           115.56      56.43       -13.76      
C           113.79      57.95       -13.58      
C           112.93      58.49       -14.43      
C           115.56      54.99       -19.77      
C           115.55      54.79       -18.42      
N           115.59      56.37       -19.96      
C           115.31      57.12       -18.76      
C           115.57      53.73       -17.41      
O           115.73      52.59       -17.42      
O           115.02      58.34       -18.65      
C           114.81      53.71       -15.03      
C           116.14      57.0        -21.16      
H           116.98455   57.63522    -20.89292   
H           115.36      57.61       -21.68      
H           116.54      56.28       -21.81      
H           114.09      54.26       -14.38      
H           115.73514   53.63938    -14.45797   
H           114.38      52.76       -15.31      
N           115.15      54.45       -16.25      
C           115.3       56.08       -17.73      
C           115.02      55.82       -16.43      
C           115.16      52.48       -22.66      
C           115.93      51.95       -21.7       
S           114.84      54.15       -22.3       
H           116.77      52.5        -19.82      
H           116.27      50.88       -21.67      
C           116.26      52.82       -20.68      
C           115.71      54.06       -20.79      
C           113.43      51.65       -26.03      
C           114.05      50.49       -25.6       
S           113.8       52.98       -24.94      
H           115.28      49.95       -23.87      
H           113.99      49.53       -26.06      
C           114.73      50.72       -24.35      
C           114.65      51.96       -23.81      
C           111.16      51.4        -29.28      
C           111.27      52.72       -28.88      
S           112.05      50.47       -28.04      
H           112.36      53.94       -27.41      
H           110.85      53.52       -29.49      
C           112.08      52.97       -27.71      
C           112.59      51.86       -27.14      
C           108.62      51.54       -33.42      
C           109.33      50.79       -32.49      
N           108.49      52.8        -32.83      
C           109.15      52.87       -31.58      
C           109.88      49.48       -32.2       
O           109.79      48.4        -32.71      
O           109.29      54.0        -31.05      
C           111.59      48.48       -30.61      
C           107.47      53.87       -32.92      
H           106.66246   53.7819     -32.19321   
H           106.9       53.8        -33.81      
H           107.77      54.91       -33.03      
H           111.57      48.2        -29.54      
H           112.55598   48.56301    -31.10808   
H           111.1       47.6        -31.0       
N           110.66      49.57       -31.01      
C           109.71      51.56       -31.34      
C           110.46      50.85       -30.43      
C           106.65      50.92       -36.84      
C           107.02      49.75       -36.28      
S           107.25      52.22       -35.82      
H           108.15      49.02       -34.52      
H           106.71      48.85       -36.75      
C           107.78      49.87       -35.06      
C           108.01      51.16       -34.66      
C           103.88      51.27       -39.61      
C           104.87      52.18       -39.91      
S           104.44      50.22       -38.27      
H           106.77      52.84       -39.01      
H           104.83      52.79       -40.76      
C           105.92      52.1        -38.9       
C           105.83      51.15       -37.98      
C           100.59      50.28       -41.57      
C           100.97      51.53       -41.93      
S           101.8       49.6        -40.5       
H           102.67      52.88       -41.44      
H           100.45      52.1        -42.66      
C           102.17      51.91       -41.31      
C           102.71      51.03       -40.44      
C           97.22       49.28       -44.9       
C           97.83       49.05       -43.7       
N           97.83       50.42       -45.4       
C           98.99       50.8        -44.62      
C           97.71       48.21       -42.52      
O           96.91       47.36       -42.21      
O           99.83       51.62       -45.01      
C           98.67       48.12       -40.23      
C           97.45       51.24       -46.46      
H           96.89821    52.10814    -46.0995    
H           98.35       51.59       -46.95      
H           96.96       50.85       -47.3       
H           98.78       48.98       -39.66      
H           99.38775    47.3454     -39.95996   
H           97.65       47.78       -40.02      
N           98.72       48.64       -41.58      
C           98.95       49.91       -43.49      
C           99.53       49.61       -42.26      
C           94.59       47.08       -46.88      
C           94.36       46.95       -45.52      
S           95.81       48.28       -47.17      
H           95.08       47.87       -43.63      
H           93.63       46.36       -45.05      
C           95.15       47.8        -44.73      
C           96.01       48.63       -45.44      
C           92.98       45.84       -50.22      
C           92.24       45.36       -49.2       
S           94.4        46.6        -49.63      
H           92.15       45.58       -47.0       
H           91.25       44.94       -49.37      
C           92.67       45.78       -47.9       
C           93.92       46.37       -47.95      
C           93.17       45.76       -54.1       
C           91.98       45.26       -53.72      
S           94.1        46.14       -52.63      
H           90.85       44.91       -51.79      
H           91.25       44.92       -54.44      
C           91.78       45.17       -52.31      
C           92.82       45.62       -51.59      
C           92.59       46.34       -58.87      
C           93.45       46.22       -57.79      
N           91.33       46.53       -58.34      
C           91.33       46.08       -56.93      
C           94.89       46.18       -57.46      
O           95.83       46.19       -58.16      
O           90.42       45.96       -56.18      
C           96.23       45.95       -55.31      
C           90.31       47.44       -58.86      
H           89.7847     48.04935    -58.12458   
H           89.54       46.81       -59.29      
H           90.64       47.97       -59.75      
H           96.25       45.16       -54.53      
H           96.56668    46.94601    -55.02242   
H           96.8        45.55       -56.15      
N           94.9        46.09       -56.0       
C           92.73       46.07       -56.56      
C           93.6        46.03       -55.46      
C           93.37       46.75       -62.6       
C           94.4        47.35       -61.94      
S           92.18       46.07       -61.58      
H           94.88       47.6        -59.75      
H           95.36       47.8        -62.33      
C           94.18       47.3        -60.54      
C           92.99       46.68       -60.21      
C           92.83       45.43       -66.12      
C           93.67       46.5        -66.23      
S           92.41       45.06       -64.5       
H           94.72       47.83       -64.8       
H           94.07       46.88       -67.12      
C           94.03       47.01       -64.96      
C           93.39       46.41       -63.99      
C           92.02       43.52       -69.44      
C           91.59       42.69       -68.45      
S           92.63       44.97       -68.79      
H           91.56       42.69       -66.29      
H           91.25       41.71       -68.61      
C           91.89       43.24       -67.14      
C           92.38       44.57       -67.11      
H           56.03       34.63       17.2        
H           91.86       43.31       -70.54      
