392

C           66.6        28.33       9.78        
C           67.42       28.05       10.88       
N           65.63       27.31       9.81        
C           65.76       26.5        11.0        
C           68.65       28.52       11.48       
O           69.43       29.38       11.23       
O           65.07       25.48       11.14       
C           70.14       27.52       13.18       
C           64.24       27.27       9.19        
H           63.43715    27.57718    9.8602      
H           64.05       26.34       8.72        
H           64.22       28.03       8.36        
H           71.01       27.17       12.53       
H           70.07682    26.8671     14.05053    
H           70.45       28.52       13.53       
N           68.83       27.54       12.55       
C           67.01       26.93       11.58       
C           67.79       26.6        12.62       
C           66.6        31.21       7.2         
C           67.38       31.6        8.18        
S           65.87       29.65       7.43        
H           67.86       30.93       10.13       
H           67.77       32.52       8.19        
C           67.37       30.71       9.2         
C           66.67       29.51       8.97        
C           65.52       32.56       3.69        
C           65.53       33.62       4.54        
S           65.92       31.1        4.56        
H           65.93       33.99       6.67        
H           65.11       34.63       4.21        
C           65.89       33.27       5.86        
C           66.2        31.94       6.01        
C           64.54       33.3        0.05        
C           64.62       31.95       0.14        
S           65.0        34.05       1.53        
H           64.87       30.47       1.82        
H           64.39       31.4        -0.76       
C           64.89       31.51       1.5         
C           65.01       32.54       2.37        
C           65.15       33.63       -4.71       
C           64.8        34.25       -3.53       
N           65.52       32.32       -4.4        
C           65.7        32.18       -2.99       
C           64.42       35.55       -2.96       
O           64.18       36.68       -3.34       
O           66.13       31.14       -2.53       
C           63.35       36.14       -0.71       
C           65.22       31.13       -5.24       
H           64.65942    30.3575     -4.7136     
H           66.12       30.66       -5.67       
H           64.49       31.27       -6.07       
H           63.74       36.28       0.36        
H           62.3096     35.84783    -0.56748    
H           63.39       37.2        -1.15       
N           64.16       35.21       -1.55       
C           64.98       33.33       -2.45       
C           64.58       33.95       -1.25       
C           64.55       34.72       -8.41       
C           63.69       35.39       -7.6        
S           65.74       33.89       -7.49       
H           63.31       35.43       -5.45       
H           62.93       36.03       -8.02       
C           63.91       35.04       -6.27       
C           64.79       34.12       -6.04       
C           64.48       35.74       -12.18      
C           65.73       35.17       -12.02      
S           63.56       35.76       -10.71      
H           66.72       34.2        -10.19      
H           66.41       35.01       -12.82      
C           65.85       34.67       -10.59      
C           64.77       34.93       -9.83       
C           63.47       37.02       -15.75      
C           62.45       37.23       -14.93      
S           64.79       36.29       -14.86      
H           61.91       36.75       -12.8       
H           61.5        37.7        -15.26      
C           62.71       36.77       -13.6       
C           63.96       36.36       -13.39      
C           63.08       40.56       -18.95      
C           63.54       39.28       -18.62      
N           62.26       41.0        -17.93      
C           62.14       39.93       -16.96      
C           64.33       38.16       -19.13      
O           64.81       37.82       -20.24      
O           61.51       40.18       -15.92      
C           65.08       35.96       -18.25      
C           61.21       42.02       -17.96      
H           60.26523    41.58185    -18.28177   
H           61.42       42.85       -18.57      
H           61.16       42.52       -16.93      
H           64.55       35.15       -17.72      
H           66.12546    35.85404    -17.96038   
H           64.9        35.78       -19.3       
N           64.44       37.32       -18.01      
C           63.06       38.86       -17.34      
C           63.63       37.72       -16.97      
C           64.65       43.11       -21.31      
C           64.93       41.91       -21.87      
S           63.62       43.12       -19.96      
H           64.64       39.85       -21.19      
H           65.49       41.74       -22.8       
C           64.36       40.93       -21.06      
C           63.55       41.38       -20.02      
C           66.34       46.6        -22.01      
C           65.03       46.68       -22.33      
S           66.64       44.96       -21.43      
H           63.27       45.37       -22.44      
H           64.64       47.54       -22.85      
C           64.3        45.46       -22.14      
C           65.08       44.44       -21.72      
C           68.83       49.5        -22.67      
C           69.56       48.32       -22.5       
S           67.1        49.22       -22.31      
H           69.09       46.18       -21.99      
H           70.62       48.21       -22.64      
C           68.79       47.18       -22.19      
C           67.43       47.52       -22.16      
C           72.44       52.51       -23.22      
C           71.16       52.17       -23.58      
N           72.86       51.67       -22.17      
C           71.84       50.63       -21.96      
C           70.04       52.53       -24.43      
O           69.92       53.26       -25.35      
O           71.86       49.76       -21.09      
C           67.59       51.82       -24.4       
C           73.98       51.91       -21.23      
H           74.48009    50.9515     -21.09109   
H           73.65       52.14       -20.24      
H           74.67       52.65       -21.66      
H           66.8        51.49       -23.71      
H           67.38926    51.36315    -25.36907   
H           67.55       52.85       -24.55      
N           68.96       51.64       -23.97      
C           70.75       51.05       -22.84      
C           69.45       50.71       -23.1       
C           74.84       55.17       -24.89      
C           73.57       55.58       -24.99      
S           74.88       53.68       -23.98      
H           71.57       54.74       -24.41      
H           73.22       56.52       -25.43      
C           72.63       54.66       -24.41      
C           73.2        53.64       -23.74      
C           78.52       56.06       -25.81      
C           77.79       57.16       -26.15      
S           77.52       54.91       -24.94      
H           75.62       57.64       -26.2       
H           78.25       58.11       -26.48      
C           76.38       56.98       -25.91      
C           76.11       55.8        -25.23      
C           82.48       55.86       -26.02      
C           82.01       55.02       -25.01      
S           81.0        56.68       -26.62      
H           80.16       54.15       -24.16      
H           82.71       54.53       -24.43      
C           80.6        54.84       -24.86      
C           79.92       55.77       -25.69      
C           87.29       55.73       -25.73      
C           86.11       56.27       -26.21      
N           86.93       54.64       -24.95      
C           85.43       54.5        -24.9       
C           85.61       57.43       -26.98      
O           86.14       58.34       -27.63      
O           84.91       53.64       -24.27      
C           83.44       58.21       -27.93      
C           87.74       53.52       -24.57      
H           87.50983    52.64247    -25.1742    
H           87.63       53.23       -23.54      
H           88.87       53.67       -24.62      
H           82.48       58.35       -27.48      
H           83.4829     58.06699    -29.00973   
H           83.86       59.13       -27.71      
N           84.24       57.21       -27.17      
C           84.96       55.55       -25.8       
C           83.86       56.2        -26.28      
C           90.94       57.19       -25.49      
C           90.1        58.22       -25.57      
S           90.12       55.66       -25.66      
H           87.86       58.44       -25.84      
H           90.33       59.29       -25.55      
C           88.7        57.76       -25.73      
C           88.58       56.39       -25.75      
C           94.79       57.14       -26.01      
C           94.45       58.22       -25.2       
S           93.36       56.21       -26.3       
H           92.62       59.07       -24.23      
H           95.14       59.06       -25.02      
C           93.11       58.24       -24.73      
C           92.36       57.31       -25.37      
C           98.06       57.36       -28.07      
C           97.57       56.1        -28.3       
S           97.02       58.21       -26.97      
H           95.72       55.06       -27.77      
H           97.98       55.37       -29.03      
C           96.32       55.91       -27.59      
C           95.94       56.88       -26.8       
C           101.77      57.77       -31.1       
C           101.09      58.21       -30.0       
N           101.22      56.52       -31.45      
C           100.05      56.24       -30.65      
C           101.06      59.27       -29.1       
O           101.81      60.22       -28.91      
O           99.35       55.25       -30.9       
C           99.94       59.76       -26.99      
C           101.87      55.37       -32.02      
H           102.25179   54.76196    -31.19986   
H           102.73      55.62       -32.6       
H           101.23      54.72       -32.56      
H           99.29       59.3        -26.19      
H           99.6637     60.80995    -27.08671   
H           101.01      59.65       -26.67      
N           99.93       59.03       -28.26      
C           100.01      57.36       -29.7       
C           99.3        57.88       -28.66      
C           103.91      59.54       -33.7       
C           104.14      60.2        -32.52      
S           102.84      58.19       -33.5       
H           103.67      59.88       -30.4       
H           104.69      61.16       -32.44      
C           103.49      59.55       -31.44      
C           102.8       58.42       -31.77      
C           105.4       60.97       -36.93      
C           104.95      59.7        -37.33      
S           105.48      61.2        -35.19      
H           103.52      58.39       -36.3       
H           104.87      59.32       -38.35      
C           104.25      59.15       -36.21      
C           104.53      59.79       -34.97      
C           106.88      63.41       -39.69      
C           106.49      64.15       -38.65      
S           106.31      61.81       -39.37      
H           105.5       63.89       -36.71      
H           106.59      65.28       -38.73      
C           106.02      63.38       -37.46      
C           105.97      62.07       -37.69      
C           106.59      66.52       -43.25      
C           107.32      65.42       -42.7       
N           105.89      67.05       -42.26      
C           105.87      66.19       -41.11      
C           108.21      64.36       -43.05      
O           108.92      64.26       -44.02      
O           104.99      66.39       -40.3       
C           109.14      62.42       -41.67      
C           105.69      68.48       -42.01      
H           106.39878   68.79009    -41.24216   
H           104.65      68.72       -41.71      
H           105.87      69.15       -42.89      
H           108.7       61.62       -41.15      
H           110.09328   62.74684    -41.25464   
H           109.42      62.11       -42.65      
N           108.23      63.52       -41.84      
C           106.75      65.11       -41.45      
C           107.17      63.89       -41.01      
C           105.93      67.83       -46.82      
C           107.09      67.13       -46.9       
S           105.34      68.01       -45.24      
H           108.38      66.09       -45.39      
H           107.63      66.82       -47.86      
C           107.52      66.72       -45.55      
C           106.62      67.07       -44.56      
C           103.96      68.11       -50.21      
C           103.59      69.21       -49.43      
S           105.28      67.29       -49.4       
H           103.9       69.94       -47.31      
H           102.82      69.91       -49.72      
C           104.15      69.2        -48.09      
C           105.07      68.16       -47.94      
C           103.28      68.14       -53.91      
C           104.09      67.06       -53.7       
S           102.82      69.0        -52.49      
H           105.03      66.11       -51.92      
H           104.58      66.46       -54.45      
C           104.3       66.84       -52.31      
C           103.69      67.81       -51.53      
C           104.02      68.74       -58.66      
C           103.26      68.96       -57.5       
N           105.05      67.99       -58.19      
C           104.98      67.61       -56.86      
C           101.97      69.54       -57.1       
O           101.25      70.29       -57.73      
O           105.88      66.98       -56.29      
C           100.69      69.68       -54.97      
C           106.41      68.01       -58.79      
H           107.02428   68.86276    -58.50093   
H           106.53      68.05       -59.91      
H           106.79      67.08       -58.58      
H           100.89      70.15       -54.0       
H           99.99525    68.85192    -54.82965   
H           100.17      70.5        -55.5       
N           101.94      69.4        -55.65      
C           103.8       68.32       -56.34      
C           103.07      68.69       -55.24      
C           103.82      69.81       -62.42      
C           102.82      70.45       -61.72      
S           104.59      68.64       -61.4       
H           102.33      70.78       -59.67      
H           102.19      71.12       -62.18      
C           102.97      70.28       -60.33      
C           103.81      69.28       -59.94      
C           105.27      68.91       -65.93      
C           104.63      70.04       -66.12      
S           105.3       68.41       -64.3       
H           103.34      71.45       -64.89      
H           104.55      70.53       -67.06      
C           103.94      70.54       -64.94      
C           104.28      69.76       -63.83      
C           107.22      66.49       -68.24      
C           107.53      67.77       -68.62      
S           106.04      66.53       -66.99      
H           107.3       69.79       -67.67      
H           108.21      68.02       -69.44      
C           107.06      68.74       -67.68      
C           106.16      68.25       -66.75      
C           107.66      63.73       -72.11      
C           107.51      63.87       -70.74      
N           107.85      65.04       -72.56      
C           107.67      66.05       -71.48      
C           107.29      63.08       -69.51      
O           107.04      61.89       -69.3       
O           107.59      67.22       -71.68      
C           107.48      63.62       -67.12      
C           107.98      65.6        -73.92      
H           109.00482   65.90675    -74.12915   
H           107.76      64.83       -74.65      
H           107.31      66.44       -74.21      
H           106.97      64.24       -66.34      
H           108.51368   63.36856    -66.88253   
H           106.89      62.69       -67.09      
N           107.31      64.07       -68.49      
C           107.59      65.23       -70.3       
C           107.41      65.33       -68.94      
C           107.94      60.42       -74.18      
C           107.18      60.23       -73.13      
S           108.37      62.02       -74.38      
H           106.35      61.5        -71.54      
H           106.73      59.32       -72.87      
C           106.87      61.43       -72.39      
C           107.51      62.52       -72.92      
C           108.07      57.58       -76.82      
C           109.38      58.04       -76.71      
S           107.09      58.13       -75.51      
H           110.26      59.91       -75.78      
H           110.17      57.67       -77.33      
C           109.4       59.24       -75.85      
C           108.27      59.37       -75.14      
C           105.51      55.56       -78.93      
C           106.56      55.79       -79.72      
S           105.9       56.23       -77.42      
H           108.63      56.47       -79.54      
H           106.55      55.51       -80.81      
C           107.69      56.35       -79.06      
C           107.51      56.63       -77.76      
C           101.92      54.72       -81.87      
C           102.48      54.65       -80.66      
N           102.81      55.42       -82.74      
C           103.97      55.8        -81.98      
C           102.17      54.19       -79.33      
O           101.23      53.58       -78.83      
O           104.87      56.55       -82.4       
C           103.64      53.66       -77.44      
C           102.39      55.98       -84.02      
H           102.62518   57.03474    -84.16253   
H           101.29      55.87       -84.14      
H           102.83      55.38       -84.82      
H           104.05      54.37       -76.76      
H           104.17327   52.71977    -77.58033   
H           102.6       53.46       -77.06      
N           103.4       54.39       -78.67      
C           103.72      55.31       -80.65      
C           104.22      55.21       -79.41      
C           98.1        54.31       -82.33      
C           98.73       53.87       -83.46      
S           99.26       54.9        -81.22      
H           100.88      53.57       -84.09      
H           98.17       53.45       -84.29      
C           100.15      53.91       -83.39      
C           100.56      54.39       -82.19      
C           94.27       54.62       -82.4       
C           94.8        55.5        -81.45      
S           95.54       53.94       -83.34      
H           96.7        55.91       -80.57      
H           94.27       56.06       -80.73      
C           96.17       55.52       -81.42      
C           96.78       54.71       -82.3       
C           90.41       53.88       -82.54      
C           91.09       52.93       -83.23      
S           91.59       55.01       -81.89      
H           93.19       52.48       -83.78      
H           90.59       51.99       -83.61      
C           92.51       53.12       -83.28      
C           92.94       54.22       -82.57      
H           67.66       25.77       13.27       
H           89.49       54.15       -82.94      
