392

C           72.84       14.15       6.35        
C           74.22       14.29       6.25        
N           72.54       13.78       7.63        
C           73.73       13.62       8.4         
C           75.3        14.58       5.32        
O           75.41       14.99       4.12        
O           73.72       13.38       9.6         
C           77.83       14.44       5.6         
C           71.23       13.64       8.24        
H           70.95216    12.60908    8.45934     
H           70.45       14.16       7.65        
H           71.32       14.12       9.26        
H           78.16       13.49       5.12        
H           78.5596     14.70844    6.36402     
H           77.75       15.19       4.88        
N           76.51       14.37       6.19        
C           74.76       13.93       7.48        
C           76.14       13.95       7.46        
C           70.5        14.1        3.13        
C           71.44       15.11       3.09        
S           70.67       13.4        4.72        
H           73.05       16.04       4.33        
H           71.5        15.76       2.19        
C           72.24       15.32       4.32        
C           71.97       14.39       5.28        
C           67.99       13.03       0.22        
C           68.01       12.03       1.12        
S           69.15       14.26       0.63        
H           69.03       11.56       3.08        
H           67.38       11.19       1.03        
C           68.89       12.31       2.25        
C           69.55       13.52       2.16        
C           66.46       14.39       -3.0        
C           66.09       13.05       -2.92       
S           67.52       14.78       -1.65       
H           66.33       11.32       -1.46       
H           65.6        12.48       -3.66       
C           66.49       12.42       -1.71       
C           67.28       13.21       -0.99       
C           66.38       15.41       -7.75       
C           66.41       15.81       -6.44       
N           66.39       13.97       -7.77       
C           66.3        13.56       -6.41       
C           66.35       16.97       -5.63       
O           66.36       18.14       -5.91       
O           66.27       12.29       -6.14       
C           66.28       17.47       -3.25       
C           66.39       13.08       -8.9        
H           65.43917    12.55097    -8.96434    
H           67.2        12.42       -8.81       
H           66.6        13.64       -9.81       
H           66.86       17.25       -2.39       
H           65.24877    17.73658    -3.0185     
H           66.79       18.45       -3.68       
N           66.48       16.49       -4.3        
C           66.44       14.7        -5.56       
C           66.55       15.12       -4.27       
C           66.62       17.73       -10.95      
C           67.21       18.25       -9.86       
S           66.06       16.15       -10.57      
H           67.86       17.61       -7.8        
H           67.53       19.34       -9.81       
C           67.38       17.33       -8.76       
C           66.65       16.2        -8.93       
C           65.95       19.97       -14.03      
C           65.36       18.78       -14.36      
S           66.89       19.88       -12.55      
H           65.06       16.91       -13.15      
H           64.86       18.53       -15.31      
C           65.45       17.88       -13.25      
C           66.25       18.27       -12.2       
C           66.38       23.41       -15.66      
C           66.02       22.49       -16.67      
S           66.47       22.64       -14.12      
H           65.57       20.35       -16.78      
H           65.66       22.77       -17.68      
C           65.79       21.19       -16.15      
C           65.97       21.1        -14.83      
C           67.66       27.17       -18.31      
C           67.34       26.68       -17.1       
N           67.81       26.05       -19.13      
C           67.36       24.82       -18.5       
C           67.11       27.09       -15.71      
O           67.24       28.12       -15.11      
O           67.39       23.69       -19.07      
C           66.78       25.83       -13.55      
C           68.36       25.89       -20.45      
H           69.23571    25.24588    -20.52961   
H           68.65       26.85       -20.83      
H           67.57       25.49       -21.15      
H           67.05       24.95       -13.02      
H           65.83196    26.26865    -13.2387    
H           67.55       26.52       -13.2       
N           66.81       25.83       -15.06      
C           67.12       25.27       -17.16      
C           66.8        24.75       -15.92      
C           68.28       30.99       -19.24      
C           67.47       30.93       -18.13      
S           68.49       29.35       -19.8       
H           66.58       29.38       -16.85      
H           67.0        31.8        -17.61      
C           67.13       29.59       -17.74      
C           67.7        28.59       -18.51      
C           70.19       33.73       -21.27      
C           68.93       34.15       -21.13      
S           70.42       32.11       -20.52      
H           67.16       33.38       -20.05      
H           68.73       35.23       -21.32      
C           68.17       33.22       -20.29      
C           68.82       32.13       -20.0       
C           73.53       35.24       -22.7       
C           72.46       35.82       -23.4       
S           72.94       33.9        -21.74      
H           70.32       35.8        -23.16      
H           72.57       36.62       -24.17      
C           71.22       35.35       -22.91      
C           71.3        34.32       -22.03      
C           77.42       37.52       -24.39      
C           76.83       36.73       -23.44      
N           76.34       38.06       -25.17      
C           75.08       37.47       -24.8       
C           77.28       35.91       -22.37      
O           78.31       35.66       -21.86      
O           74.07       37.63       -25.45      
C           76.05       34.56       -20.71      
C           76.38       39.09       -26.18      
H           75.88617    39.98462    -25.80068   
H           75.95       38.73       -27.04      
H           77.39       39.45       -26.34      
H           75.54       33.66       -20.84      
H           75.74189    35.08819    -19.80768   
H           77.14       34.28       -20.66      
N           76.0        35.31       -21.98      
C           75.4        36.62       -23.65      
C           74.93       35.68       -22.77      
C           81.11       38.12       -25.11      
C           80.94       38.18       -23.74      
S           79.67       37.76       -25.92      
H           79.22       38.05       -22.3       
H           81.86       38.19       -23.08      
C           79.6        38.03       -23.33      
C           78.82       37.96       -24.4       
C           84.67       37.18       -26.4       
C           84.23       38.26       -27.17      
S           83.51       36.78       -25.11      
H           82.48       39.38       -27.43      
H           84.73       38.57       -28.09      
C           82.96       38.61       -26.87      
C           82.38       37.97       -25.77      
C           88.05       35.42       -27.1       
C           87.36       34.75       -26.13      
S           87.15       36.84       -27.61      
H           85.56       35.11       -24.93      
H           87.71       33.9        -25.6       
C           86.18       35.4        -25.76      
C           85.82       36.49       -26.55      
C           92.38       33.42       -26.34      
C           91.51       34.01       -27.27      
N           91.74       33.4        -25.09      
C           90.4        33.95       -25.15      
C           91.35       34.51       -28.57      
O           92.03       34.42       -29.6       
O           89.69       33.89       -24.15      
C           89.62       35.85       -29.77      
C           92.51       33.48       -23.82      
H           92.37226    34.38909    -23.2346    
H           93.64       33.44       -24.01      
H           92.32       32.62       -23.13      
H           89.17       36.79       -29.52      
H           88.89197    35.31281    -30.37787   
H           90.51       36.07       -30.39      
N           90.04       35.14       -28.55      
C           90.3        34.42       -26.52      
C           89.4        35.13       -27.34      
C           95.63       31.61       -27.04      
C           95.56       32.73       -27.81      
S           94.29       31.55       -26.02      
H           94.3        34.48       -28.06      
H           96.34       32.95       -28.5       
C           94.5        33.57       -27.55      
C           93.67       33.02       -26.64      
C           97.77       28.58       -28.34      
C           98.2        28.87       -27.05      
S           96.49       29.66       -28.73      
H           97.57       30.2        -25.35      
H           98.94       28.28       -26.6       
C           97.4        29.87       -26.39      
C           96.46       30.45       -27.21      
C           99.76       25.79       -30.45      
C           98.49       25.91       -30.94      
S           99.89       26.9        -29.14      
H           96.67       27.13       -30.56      
H           98.14       25.16       -31.66      
C           97.69       26.96       -30.34      
C           98.33       27.62       -29.31      
C           101.54      21.89       -32.55      
C           101.77      23.02       -31.85      
N           100.11      21.66       -32.59      
C           99.42       22.81       -32.07      
C           102.81      23.86       -31.35      
O           104.03      23.82       -31.51      
O           98.26       22.85       -31.86      
C           102.78      26.24       -30.7       
C           99.38       20.48       -33.06      
H           98.76799    20.74428    -33.92238   
H           98.79       20.09       -32.23      
H           100.0       19.71       -33.38      
H           102.39      26.83       -29.87      
H           102.8147    26.73276    -31.67164   
H           103.74      26.09       -30.29      
N           102.11      24.94       -30.75      
C           100.54      23.61       -31.52      
C           100.76      24.74       -30.76      
C           104.22      19.29       -33.91      
C           104.61      19.82       -32.73      
S           102.66      19.95       -34.28      
H           104.11      21.42       -31.39      
H           105.6       19.69       -32.4       
C           103.76      20.85       -32.22      
C           102.54      20.96       -32.86      
C           105.94      17.47       -36.87      
C           106.32      16.83       -35.76      
S           104.92      18.8        -36.54      
H           105.89      16.91       -33.57      
H           106.98      15.98       -35.87      
C           105.73      17.36       -34.53      
C           104.97      18.46       -34.82      
C           106.24      16.26       -40.61      
C           107.47      16.18       -39.98      
S           105.1       17.01       -39.5       
H           108.3       16.7        -37.98      
H           108.43      15.88       -40.44      
C           107.44      16.69       -38.61      
C           106.24      17.15       -38.21      
C           106.79      13.73       -44.64      
C           105.97      14.53       -43.87      
N           108.1       13.74       -44.03      
C           108.04      14.46       -42.82      
C           104.65      15.03       -43.79      
O           103.68      14.97       -44.45      
O           109.04      14.73       -42.2       
C           103.43      16.47       -42.12      
C           109.42      13.49       -44.67      
H           109.97625   12.76207    -44.07941   
H           109.98      14.45       -44.78      
H           109.46      13.08       -45.72      
H           103.66      17.46       -41.77      
H           102.69654   15.97153    -41.48623   
H           103.08      16.66       -43.1       
N           104.6       15.7        -42.53      
C           106.66      14.92       -42.68      
C           105.88      15.65       -41.89      
C           106.22      11.33       -47.83      
C           105.18      12.25       -47.61      
S           107.36      11.66       -46.59      
H           104.6       13.86       -46.38      
H           104.26      12.24       -48.18      
C           105.37      13.2        -46.62      
C           106.48      13.06       -45.85      
C           106.01      8.44        -50.48      
C           106.8       8.01        -49.47      
S           105.78      10.13       -50.26      
H           107.19      8.59        -47.41      
H           107.34      7.08        -49.46      
C           106.69      8.87        -48.33      
C           106.23      10.12       -48.59      
C           105.41      6.2         -53.65      
C           105.26      7.5         -53.97      
S           105.58      6.08        -51.89      
H           105.58      9.5         -53.06      
H           105.11      7.91        -54.93      
C           105.55      8.41        -52.89      
C           105.76      7.8         -51.74      
C           104.21      4.09        -57.83      
C           104.62      3.92        -56.53      
N           103.78      5.42        -57.99      
C           104.1       6.11        -56.81      
C           105.32      3.01        -55.62      
O           105.6       1.83        -55.87      
O           103.6       7.19        -56.65      
C           106.5       3.13        -53.46      
C           103.09      6.13        -59.11      
H           102.05016   6.27052     -58.81491   
H           103.23      5.65        -60.05      
H           103.54      7.02        -59.37      
H           106.1       3.29        -52.45      
H           107.55666   3.39596     -53.48875   
H           106.29      2.08        -53.6       
N           105.71      3.79        -54.51      
C           104.79      5.21        -55.91      
C           105.26      5.11        -54.6       
C           103.76      1.44        -60.72      
C           103.93      0.83        -59.54      
S           104.0       3.18        -60.5       
H           104.1       1.34        -57.44      
H           103.75      -0.26       -59.51      
C           104.08      1.69        -58.46      
C           104.12      3.04        -58.77      
C           103.25      -0.29       -64.18      
C           103.07      1.03        -64.45      
S           103.75      -0.69       -62.58      
H           102.93      2.76        -63.19      
H           102.72      1.5         -65.35      
C           103.21      1.73        -63.24      
C           103.57      0.97        -62.1       
C           102.48      -2.6        -67.26      
C           103.45      -3.14       -66.53      
S           101.86      -1.26       -66.34      
H           104.73      -2.66       -64.81      
H           103.89      -4.07       -66.8       
C           103.87      -2.39       -65.42      
C           103.19      -1.25       -65.22      
C           101.79      -6.01       -70.54      
C           101.52      -4.66       -70.19      
N           102.18      -6.67       -69.35      
C           102.12      -5.82       -68.2       
C           101.21      -3.35       -70.69      
O           100.92      -2.95       -71.81      
O           102.42      -6.1        -67.06      
C           101.55      -1.07       -69.95      
C           102.45      -8.07       -69.19      
H           103.52041   -8.27115    -69.2331    
H           102.1       -8.37       -68.21      
H           101.92      -8.72       -69.92      
H           102.27      -0.55       -69.31      
H           100.58546   -0.56235    -69.94275   
H           102.06      -0.97       -70.89      
N           101.43      -2.45       -69.6       
C           101.84      -4.5        -68.78      
C           101.87      -3.15       -68.47      
C           101.83      -7.77       -74.01      
C           101.03      -6.67       -74.11      
S           102.51      -7.94       -72.43      
H           100.47      -4.96       -72.89      
H           100.62      -6.3        -74.98      
C           101.07      -5.92       -72.92      
C           101.68      -6.56       -71.9       
C           102.09      -10.31      -76.87      
C           103.19      -10.45      -76.16      
S           101.1       -9.03       -76.39      
H           103.92      -9.48       -74.38      
H           103.89      -11.28      -76.24      
C           103.16      -9.56       -75.03      
C           102.16      -8.67       -75.08      
C           101.79      -13.04      -79.64      
C           100.72      -12.21      -79.84      
S           102.73      -12.54      -78.21      
H           99.9        -10.32      -78.9       
H           99.99       -12.38      -80.61      
C           100.67      -11.12      -78.87      
C           101.77      -11.15      -78.0       
C           100.88      -16.7       -82.64      
C           101.79      -16.07      -81.76      
N           99.68       -16.12      -82.4       
C           99.8        -14.94      -81.51      
C           103.23      -16.06      -81.34      
O           104.18      -16.72      -81.61      
O           98.83       -14.42      -80.99      
C           104.63      -14.43      -80.14      
C           98.38       -16.56      -82.89      
H           97.95933    -15.71165   -83.42986   
H           97.72       -16.92      -82.12      
H           98.42       -17.42      -83.59      
H           104.53      -14.25      -79.1       
H           104.91652   -13.47016   -80.56978   
H           105.37      -15.13      -80.49      
N           103.31      -14.78      -80.61      
C           101.19      -14.93      -81.14      
C           102.05      -14.24      -80.35      
C           101.72      -18.91      -85.82      
C           102.59      -19.23      -84.83      
S           100.59      -17.79      -85.23      
H           102.9       -18.65      -82.67      
H           103.33      -20.0       -84.93      
C           102.44      -18.47      -83.62      
C           101.21      -17.76      -83.61      
C           100.65      -20.23      -89.26      
C           101.5       -21.21      -88.74      
S           100.36      -18.88      -88.18      
H           102.8       -21.38      -87.04      
H           101.88      -22.09      -89.31      
C           102.02      -20.81      -87.52      
C           101.57      -19.56      -87.08      
C           99.41       -20.58      -92.91      
C           98.52       -19.8       -92.26      
S           100.73      -20.94      -91.89      
H           98.13       -19.28      -90.16      
H           97.57       -19.44      -92.73      
C           98.82       -19.68      -90.9       
C           100.04      -20.18      -90.58      
H           76.8        13.59       8.25        
H           99.24       -21.22      -93.77      
