392

C           72.57       40.22       21.26       
C           73.93       40.25       21.49       
N           71.97       39.24       22.12       
C           73.0        38.56       22.82       
C           75.11       41.02       21.26       
O           75.29       42.06       20.58       
O           72.86       37.59       23.48       
C           77.53       40.9        22.05       
C           70.53       39.01       22.25       
H           70.18234    38.38563    23.07304    
H           70.11       38.59       21.37       
H           70.03       39.95       22.47       
H           78.16       40.56       21.23       
H           78.04815    40.75196    22.99747    
H           77.33       41.98       21.82       
N           76.2        40.29       21.92       
C           74.25       39.17       22.34       
C           75.62       39.22       22.6        
C           70.6        42.49       18.59       
C           71.88       42.33       18.24       
S           70.35       41.7        20.17       
H           73.65       41.22       18.98       
H           72.32       42.75       17.33       
C           72.61       41.5        19.16       
C           71.92       40.87       20.21       
C           68.3        44.55       16.01       
C           67.55       44.05       17.04       
S           69.96       44.25       16.43       
H           67.78       42.75       18.87       
H           66.46       44.12       17.04       
C           68.26       43.3        18.03       
C           69.6        43.24       17.85       
C           68.12       45.18       12.14       
C           66.92       45.54       12.71       
S           69.17       44.64       13.41       
H           66.14       46.03       14.77       
H           66.02       45.81       12.15       
C           66.93       45.62       14.14       
C           68.06       45.09       14.68       
C           67.32       44.08       7.45        
C           68.17       44.57       8.41        
N           66.05       44.03       7.99        
C           66.15       44.41       9.4         
C           69.56       44.93       8.65        
O           70.55       44.96       7.91        
O           65.13       44.38       10.17       
C           70.85       45.86       10.59       
C           64.9        43.29       7.55        
H           64.86397    42.30991    8.02563     
H           64.76       43.23       6.45        
H           64.03       43.86       7.89        
H           70.88       45.79       11.7        
H           70.86454    46.88492    10.21928    
H           71.69       45.27       10.14       
N           69.63       45.17       10.09       
C           67.55       44.68       9.69        
C           68.41       44.94       10.69       
C           68.17       43.33       3.7         
C           69.21       42.99       4.49        
S           66.84       43.91       4.63        
H           69.77       43.16       6.56        
H           70.19       42.75       4.03        
C           68.96       43.16       5.86        
C           67.71       43.58       6.12        
C           69.19       44.07       -0.06       
C           67.86       43.87       -0.03       
S           69.84       43.93       1.54        
H           66.28       43.49       1.43        
H           67.2        44.03       -0.92       
C           67.35       43.54       1.3         
C           68.32       43.5        2.29        
C           71.03       45.08       -3.26       
C           71.8        45.41       -2.18       
S           69.52       44.45       -2.74       
H           71.87       44.88       -0.01       
H           72.65       46.11       -2.3        
C           71.33       44.87       -0.97       
C           70.05       44.46       -1.13       
C           73.81       46.15       -7.25       
C           72.65       45.7        -6.66       
N           74.65       46.51       -6.2        
C           73.95       46.43       -4.94       
C           71.32       45.23       -7.05       
O           70.74       45.12       -8.17       
O           74.5        46.83       -3.92       
C           69.58       43.96       -5.93       
C           76.11       46.58       -6.17       
H           76.5065     45.71744    -5.63438    
H           76.37       47.52       -5.69       
H           76.6        46.62       -7.09       
H           68.78       44.16       -5.22       
H           69.91178    42.92319    -5.9853     
H           69.03       44.22       -6.88       
N           70.71       44.92       -5.84       
C           72.65       45.82       -5.23       
C           71.41       45.34       -4.67       
C           75.36       45.78       -10.79      
C           74.45       44.78       -10.66      
S           75.41       46.84       -9.4        
H           72.8        44.35       -9.14       
H           74.35       43.99       -11.38      
C           73.69       44.97       -9.43       
C           74.25       45.89       -8.58       
C           77.91       45.65       -13.73      
C           77.84       46.93       -13.36      
S           76.82       44.66       -12.79      
H           76.78       48.01       -11.7       
H           78.43       47.64       -13.87      
C           76.89       47.11       -12.28      
C           76.22       45.98       -11.9       
C           79.7        44.35       -16.97      
C           79.82       43.44       -16.02      
S           78.94       45.78       -16.32      
H           79.38       43.06       -13.99      
H           80.28       42.56       -16.24      
C           79.25       43.76       -14.79      
C           78.75       45.04       -14.74      
C           83.17       42.77       -19.93      
C           82.07       43.53       -19.66      
N           83.38       42.13       -18.65      
C           82.44       42.54       -17.57      
C           81.17       44.45       -20.41      
O           81.02       44.82       -21.59      
O           82.64       42.41       -16.38      
C           79.21       45.96       -19.67      
C           84.33       41.03       -18.52      
H           84.14575    40.36807    -17.67383   
H           85.34       41.44       -18.56      
H           84.25       40.43       -19.43      
H           78.94       46.67       -18.86      
H           78.29201    45.58038    -20.11864   
H           79.75       46.46       -20.41      
N           80.22       44.87       -19.4       
C           81.59       43.48       -18.31      
C           80.51       44.3        -18.12      
C           85.39       41.98       -23.09      
C           84.22       42.49       -23.51      
S           85.4        41.84       -21.37      
H           82.28       43.03       -22.62      
H           84.06       42.78       -24.56      
C           83.3        42.75       -22.47      
C           83.8        42.46       -21.19      
C           88.28       40.44       -25.05      
C           88.01       41.53       -25.73      
S           87.37       40.25       -23.61      
H           86.43       43.05       -25.41      
H           88.44       41.75       -26.72      
C           86.99       42.25       -25.03      
C           86.53       41.73       -23.85      
C           90.06       37.15       -26.41      
C           90.29       37.36       -25.01      
S           89.18       38.51       -26.96      
H           89.81       38.82       -23.4       
H           90.93       36.71       -24.49      
C           89.71       38.52       -24.47      
C           89.04       39.26       -25.4       
C           92.53       33.09       -26.99      
C           91.75       34.08       -27.53      
N           92.97       33.56       -25.72      
C           92.54       34.86       -25.5       
C           91.0        34.38       -28.72      
O           90.82       33.86       -29.81      
O           92.87       35.49       -24.52      
C           89.22       36.0        -29.21      
C           93.43       32.85       -24.57      
H           92.55521    32.53913    -23.99886   
H           94.2        33.43       -23.98      
H           93.87       31.83       -24.87      
H           89.21       37.1        -29.16      
H           88.23304    35.54177    -29.14655   
H           89.66       35.92       -30.19      
N           90.24       35.53       -28.31      
C           91.59       35.15       -26.59      
C           90.68       36.03       -27.13      
C           93.97       29.9        -28.67      
C           92.77       30.21       -29.27      
S           94.23       30.88       -27.3       
H           91.34       31.88       -29.15      
H           92.37       29.66       -30.08      
C           92.26       31.41       -28.74      
C           92.83       31.83       -27.62      
C           95.89       26.53       -29.41      
C           96.66       27.25       -28.59      
S           94.39       27.35       -29.75      
H           96.46       29.2        -27.54      
H           97.6        26.87       -28.24      
C           96.03       28.51       -28.19      
C           94.88       28.76       -28.84      
C           95.28       23.13       -31.14      
C           96.37       22.97       -30.3       
S           94.87       24.81       -31.18      
H           97.44       24.18       -28.74      
H           96.86       22.0        -30.25      
C           96.78       24.15       -29.61      
C           95.97       25.22       -29.91      
C           95.74       19.54       -34.19      
C           94.98       20.49       -33.64      
N           96.84       19.39       -33.3       
C           96.88       20.47       -32.42      
C           93.76       21.23       -33.89      
O           92.86       21.08       -34.69      
O           97.93       20.7        -31.76      
C           92.54       23.06       -32.65      
C           98.07       18.56       -33.35      
H           98.16376    17.86763    -32.51338   
H           98.92       19.17       -33.36      
H           98.2        17.99       -34.29      
H           92.83       24.04       -32.18      
H           91.70057    22.76863    -32.01869   
H           92.2        23.29       -33.66      
N           93.67       22.2        -32.8       
C           95.63       21.19       -32.57      
C           94.86       22.24       -32.16      
C           95.59       17.39       -37.55      
C           94.46       18.06       -37.46      
S           96.63       17.72       -36.22      
H           93.41       19.32       -35.99      
H           93.66       17.98       -38.15      
C           94.36       18.79       -36.25      
C           95.49       18.76       -35.41      
C           97.14       15.0        -40.1       
C           95.8        15.0        -40.23      
S           97.62       16.1        -38.87      
H           94.12       16.0        -39.26      
H           95.24       14.31       -40.9       
C           95.16       15.93       -39.41      
C           96.01       16.55       -38.59      
C           99.34       12.25       -41.8       
C           100.11      13.02       -40.98      
S           97.74       12.95       -41.81      
H           99.92       14.66       -39.51      
H           101.06      12.65       -40.6       
C           99.41       14.04       -40.27      
C           98.11       14.2        -40.69      
C           102.31      9.11        -43.91      
C           100.99      9.51        -43.67      
N           103.1       9.8         -43.03      
C           102.34      10.84       -42.38      
C           99.64       9.21        -43.99      
O           99.2        8.33        -44.71      
O           102.89      11.65       -41.77      
C           97.49       10.29       -43.6       
C           104.26      9.26        -42.3       
H           104.02349   8.95697     -41.28003   
H           105.13      10.01       -42.34      
H           104.64      8.34        -42.77      
H           97.08       11.33       -43.63      
H           96.83193    9.76638     -42.90655   
H           97.38       9.86        -44.61      
N           98.9        10.18       -43.24      
C           100.99      10.6        -42.75      
C           99.72       11.07       -42.55      
C           104.15      6.98        -46.54      
C           102.79      6.73        -46.71      
S           104.46      8.11        -45.28      
H           100.9       7.34        -45.78      
H           102.35      6.11        -47.53      
C           101.98      7.42        -45.74      
C           102.77      8.17        -44.86      
C           106.87      5.7         -48.93      
C           107.44      5.91        -47.71      
S           105.15      6.11        -48.92      
H           106.8       6.5         -45.68      
H           108.48      5.64        -47.5       
C           106.52      6.42        -46.78      
C           105.23      6.42        -47.24      
C           109.18      4.55        -51.89      
C           108.02      5.04        -52.4       
S           109.07      4.56        -50.17      
H           106.19      6.06        -51.76      
H           107.78      5.02        -53.44      
C           107.12      5.55        -51.47      
C           107.51      5.33        -50.17      
C           111.01      1.88        -55.52      
C           111.09      2.38        -54.27      
N           109.75      2.17        -55.93      
C           109.03      2.99        -54.95      
C           112.02      2.48        -53.14      
O           113.18      2.11        -52.99      
O           107.88      3.26        -55.06      
C           112.26      4.07        -51.1       
C           109.18      2.13        -57.25      
H           109.27013   3.07636     -57.78327   
H           108.07      1.88        -57.21      
H           109.58      1.3         -57.85      
H           111.74      3.77        -50.14      
H           112.46632   5.12292     -51.29209   
H           113.2       3.59        -51.21      
N           111.44      3.47        -52.21      
C           109.99      3.21        -53.88      
C           110.11      3.72        -52.59      
C           112.84      -1.1        -57.42      
C           113.59      -0.76       -56.33      
S           111.56      -0.0        -57.64      
H           113.35      0.54        -54.59      
H           114.44      -1.31       -56.01      
C           113.01      0.29        -55.53      
C           111.84      0.81        -56.1       
C           112.56      -3.39       -60.47      
C           113.29      -4.13       -59.56      
S           112.2       -1.79       -59.9       
H           114.01      -3.78       -57.52      
H           113.49      -5.19       -59.75      
C           113.64      -3.33       -58.43      
C           113.04      -2.06       -58.45      
C           110.9       -4.75       -63.69      
C           111.29      -3.44       -63.89      
S           111.13      -5.2        -62.0       
H           112.33      -1.88       -62.88      
H           111.09      -2.98       -64.87      
C           111.93      -2.85       -62.81      
C           112.0       -3.73       -61.74      
C           108.58      -5.64       -67.73      
C           109.07      -6.1        -66.53      
N           108.66      -4.27       -67.71      
C           109.25      -3.75       -66.52      
C           109.29      -7.34       -65.78      
O           109.3       -8.57       -66.04      
O           109.52      -2.54       -66.39      
C           110.13      -7.81       -63.65      
C           108.22      -3.21       -68.65      
H           107.32208   -2.70717    -68.29083   
H           108.98      -2.52       -68.72      
H           108.04      -3.54       -69.66      
H           110.2       -7.35       -62.75      
H           111.00983   -8.45111    -63.70456   
H           109.22      -8.34       -63.59      
N           110.04      -6.84       -64.7       
C           109.54      -4.98       -65.75      
C           110.12      -5.44       -64.62      
C           107.18      -7.58       -70.8       
C           107.98      -8.39       -70.14      
S           107.22      -5.92       -70.18      
H           109.26      -8.16       -68.33      
H           108.05      -9.47       -70.28      
C           108.62      -7.67       -69.05      
C           108.27      -6.43       -68.89      
C           104.83      -7.52       -73.83      
C           105.17      -8.84       -73.64      
S           105.68      -6.48       -72.65      
H           106.38      -10.04      -72.19      
H           104.81      -9.64       -74.24      
C           106.03      -9.06       -72.54      
C           106.36      -7.86       -71.89      
C           102.69      -6.51       -76.95      
C           102.85      -5.41       -76.19      
S           103.14      -7.92       -75.98      
H           103.97      -4.76       -74.36      
H           102.54      -4.4        -76.48      
C           103.74      -5.58       -75.03      
C           104.08      -6.94       -74.88      
C           99.14       -5.13       -79.9       
C           100.21      -5.95       -79.61      
N           98.79       -4.49       -78.72      
C           99.8        -4.78       -77.69      
C           101.04      -6.93       -80.26      
O           101.04      -7.49       -81.32      
O           99.88       -4.21       -76.66      
C           102.82      -8.45       -79.48      
C           97.61       -3.8        -78.32      
H           97.07774    -4.46173    -77.63669   
H           96.91       -3.59       -79.18      
H           97.9        -2.9        -77.77      
H           102.96      -9.2        -78.7       
H           103.79037   -8.05623    -79.78236   
H           102.47      -9.01       -80.34      
N           101.89      -7.33       -79.14      
C           100.69      -5.73       -78.32      
C           101.73      -6.57       -77.99      
C           96.82       -4.4        -82.93      
C           97.39       -5.62       -83.12      
S           97.64       -3.57       -81.62      
H           98.91       -6.86       -82.17      
H           97.16       -6.3        -83.99      
C           98.32       -5.99       -82.13      
C           98.41       -5.03       -81.12      
C           94.68       -1.91       -85.04      
C           95.15       -2.85       -85.88      
S           95.16       -2.21       -83.41      
H           96.42       -4.61       -85.67      
H           94.94       -2.84       -86.93      
C           95.95       -3.77       -85.19      
C           96.05       -3.59       -83.83      
C           92.54       1.24        -85.99      
C           92.97       1.4         -84.76      
S           93.11       -0.29       -86.67      
H           94.4        0.37        -83.46      
H           92.83       2.37        -84.18      
C           93.86       0.36        -84.4       
C           93.96       -0.69       -85.25      
H           76.0        38.92       23.62       
H           92.13       2.02        -86.59      
