392

C           78.12       40.91       11.89       
C           79.43       41.26       12.01       
N           77.54       40.74       13.08       
C           78.55       40.65       14.14       
C           80.66       41.72       11.43       
O           81.04       41.93       10.3        
O           78.21       40.56       15.29       
C           82.86       42.61       12.21       
C           76.12       40.94       13.57       
H           75.82221    41.97139    13.38115    
H           76.05       40.55       14.64       
H           75.54       40.18       13.03       
H           83.64       42.24       12.85       
H           82.68465    43.66213    12.43445    
H           83.19       42.35       11.15       
N           81.64       41.77       12.48       
C           79.77       41.13       13.41       
C           81.01       41.53       13.68       
C           75.97       40.91       8.58        
C           77.26       40.82       8.21        
S           75.83       40.68       10.3        
H           79.26       40.73       9.37        
H           77.59       40.85       7.15        
C           78.18       40.77       9.38        
C           77.53       40.77       10.58       
C           73.42       41.13       5.63        
C           72.86       41.74       6.71        
S           74.85       40.31       6.13        
H           73.52       42.04       8.8         
H           72.03       42.32       6.65        
C           73.67       41.59       7.87        
C           74.88       41.13       7.63        
C           71.71       41.18       2.15        
C           72.91       40.58       1.98        
S           71.53       41.86       3.72        
H           74.64       40.03       3.28        
H           73.26       40.21       1.12        
C           73.7        40.54       3.21        
C           72.98       41.04       4.27        
C           70.04       41.41       -2.47       
C           69.79       41.48       -1.12       
N           71.33       40.95       -2.57       
C           71.96       40.82       -1.24       
C           68.75       41.81       -0.16       
O           67.54       42.21       -0.22       
O           73.15       40.57       -1.12       
C           68.7        42.12       2.35        
C           71.96       40.29       -3.66       
H           71.87721    39.20686    -3.57031    
H           73.01       40.63       -3.8        
H           71.43       40.42       -4.57       
H           69.23       42.79       3.02        
H           68.21499    41.28549    2.85641     
H           67.85       42.71       2.08        
N           69.42       41.75       1.19        
C           70.92       41.12       -0.3        
C           70.71       41.37       1.06        
C           68.47       43.21       -5.56       
C           67.52       42.98       -4.67       
S           69.93       42.7        -4.85       
H           67.21       41.85       -2.68       
H           66.49       43.27       -4.88       
C           67.84       42.22       -3.48       
C           69.15       41.86       -3.48       
C           69.35       45.1        -8.82       
C           68.23       45.62       -8.37       
S           69.84       43.68       -7.93       
H           66.86       45.31       -6.55       
H           67.81       46.59       -8.63       
C           67.72       44.96       -7.18       
C           68.53       43.9        -6.8        
C           71.64       45.77       -12.04      
C           70.28       46.17       -12.32      
S           71.65       45.15       -10.42      
H           68.36       46.36       -11.23      
H           69.95       46.38       -13.33      
C           69.4        46.01       -11.24      
C           69.98       45.45       -10.11      
C           73.72       45.47       -16.47      
C           73.87       45.53       -15.09      
N           72.39       45.89       -16.7       
C           71.58       45.93       -15.54      
C           74.85       45.41       -14.06      
O           76.02       45.0        -14.09      
O           70.4        46.07       -15.51      
C           74.89       45.07       -11.57      
C           71.93       46.7        -17.79      
H           71.83565    47.73789    -17.47065   
H           70.94       46.35       -18.13      
H           72.61       46.71       -18.65      
H           74.21       44.64       -10.82      
H           75.43179    45.93826    -11.19491   
H           75.53       44.26       -11.89      
N           74.09       45.4        -12.79      
C           72.58       45.69       -14.46      
C           72.72       45.59       -13.04      
C           76.8        44.16       -18.53      
C           75.72       44.03       -19.38      
S           76.3        44.83       -16.98      
H           73.51       44.54       -19.25      
H           75.81       43.64       -20.42      
C           74.48       44.51       -18.73      
C           74.66       44.95       -17.42      
C           80.33       43.08       -19.87      
C           80.43       43.48       -18.56      
S           78.74       43.3        -20.38      
H           79.23       44.31       -16.99      
H           81.35       43.56       -18.01      
C           79.24       44.02       -18.03      
C           78.18       43.86       -18.82      
C           82.21       40.66       -22.19      
C           83.16       41.14       -21.25      
S           80.7        41.48       -22.05      
H           82.95       42.2        -19.4       
H           84.19       40.7        -21.2       
C           82.56       42.01       -20.37      
C           81.28       42.36       -20.67      
C           85.32       38.42       -25.09      
C           83.98       38.69       -24.77      
N           86.14       39.3        -24.36      
C           85.35       40.13       -23.55      
C           82.65       38.52       -25.23      
O           82.24       38.0        -26.32      
O           85.91       40.94       -22.76      
C           80.4        38.95       -24.31      
C           87.53       39.05       -23.99      
H           87.55898    38.60075    -22.99731   
H           88.24       39.84       -24.22      
H           87.92       38.25       -24.58      
H           79.81       39.78       -23.92      
H           80.14009    38.01296    -23.81754   
H           80.18       38.95       -25.39      
N           81.87       39.18       -24.19      
C           83.97       39.67       -23.7       
C           82.66       39.84       -23.31      
C           86.77       36.37       -28.14      
C           85.59       35.83       -27.8       
S           87.36       37.38       -26.88      
H           84.02       36.28       -26.34      
H           85.15       34.99       -28.28      
C           85.0        36.5        -26.76      
C           85.81       37.44       -26.08      
C           89.32       34.3        -30.11      
C           89.55       35.61       -30.52      
S           88.09       34.15       -28.91      
H           88.41       37.54       -30.06      
H           90.32       35.93       -31.21      
C           88.58       36.52       -29.86      
C           87.73       35.83       -29.04      
C           90.54       31.07       -31.79      
C           91.53       32.02       -31.84      
S           89.25       31.69       -30.86      
H           91.98       34.06       -31.23      
H           92.43       31.88       -32.41      
C           91.22       33.23       -31.2       
C           90.02       33.2        -30.58      
C           93.14       27.3        -33.38      
C           91.91       27.91       -33.2       
N           94.13       28.31       -33.08      
C           93.43       29.37       -32.35      
C           90.45       27.66       -33.31      
O           89.67       26.86       -33.79      
O           94.11       30.25       -31.87      
C           88.4        29.19       -33.06      
C           95.3        28.74       -33.86      
H           94.9296     29.20125    -34.77551   
H           95.93       27.86       -34.15      
H           95.97       29.43       -33.25      
H           88.16       30.25       -33.07      
H           87.64121    28.65104    -32.49268   
H           88.24       28.95       -34.15      
N           89.79       28.84       -32.79      
C           92.01       29.19       -32.55      
C           90.74       29.74       -32.28      
C           94.33       23.76       -34.49      
C           93.07       24.0        -34.97      
S           94.92       25.15       -33.66      
H           91.57       25.64       -34.83      
H           92.45       23.28       -35.52      
C           92.61       25.28       -34.65      
C           93.44       25.99       -33.93      
C           97.27       21.31       -35.45      
C           96.22       20.55       -35.11      
S           96.88       22.98       -35.21      
H           94.09       20.8        -34.52      
H           96.24       19.46       -35.17      
C           95.04       21.27       -34.85      
C           95.28       22.63       -34.71      
C           100.67      19.38       -35.96      
C           100.86      20.69       -36.33      
S           99.09       19.26       -35.4       
H           99.74       22.6        -36.4       
H           101.79      20.99       -36.77      
C           99.7        21.54       -36.15      
C           98.6        20.85       -35.78      
C           103.87      16.92       -38.68      
C           103.01      16.87       -37.6       
N           104.34      18.24       -38.76      
C           103.57      19.08       -37.88      
C           102.2       15.99       -36.75      
O           102.03      14.76       -36.7       
O           103.74      20.3        -37.87      
C           100.61      16.34       -34.87      
C           105.59      18.74       -39.29      
H           106.22518   18.95654    -38.43107   
H           105.52      19.67       -39.96      
H           106.14      17.99       -39.85      
H           99.59       16.59       -34.99      
H           100.93858   16.68955    -33.89125   
H           100.77      15.27       -34.98      
N           101.39      16.93       -35.95      
C           102.66      18.22       -37.16      
C           101.65      18.27       -36.29      
C           104.6       14.7        -41.78      
C           103.84      13.98       -40.9       
S           104.94      16.21       -41.09      
H           102.8       14.23       -38.95      
H           103.58      12.95       -41.12      
C           103.47      14.6        -39.67      
C           104.06      15.87       -39.59      
C           104.9       13.37       -45.45      
C           105.38      14.66       -45.46      
S           104.67      12.83       -43.82      
H           105.75      16.29       -43.92      
H           105.79      15.12       -46.34      
C           105.44      15.3        -44.15      
C           104.99      14.42       -43.13      
C           104.28      11.72       -48.94      
C           104.34      10.68       -48.02      
S           104.65      13.21       -48.17      
H           104.6       10.5        -45.81      
H           104.16      9.64        -48.36      
C           104.63      11.11       -46.73      
C           104.82      12.49       -46.62      
C           104.68      9.4         -53.14      
C           104.2       10.54       -52.53      
N           105.14      8.46        -52.17      
C           105.01      9.08        -50.88      
C           103.61      11.83       -52.66      
O           103.19      12.48       -53.56      
O           105.4       8.54        -49.86      
C           103.07      13.75       -50.96      
C           105.16      7.01        -52.34      
H           104.42675   6.59402     -51.64905   
H           106.17      6.55        -52.26      
H           104.77      6.77        -53.33      
H           103.83      14.38       -50.46      
H           102.15014   13.74287    -50.37528   
H           102.91      14.29       -51.92      
N           103.65      12.4        -51.32      
C           104.47      10.43       -51.13      
C           104.22      11.57       -50.41      
C           104.8       8.49        -56.95      
C           103.76      9.32        -56.68      
S           105.72      8.16        -55.46      
H           102.89      10.36       -54.97      
H           103.2       9.69        -57.55      
C           103.68      9.72        -55.31      
C           104.59      9.11        -54.51      
C           106.1       6.1         -59.76      
C           104.92      6.66        -60.21      
S           106.48      6.68        -58.07      
H           103.32      7.9         -59.33      
H           104.54      6.4         -61.17      
C           104.33      7.47        -59.22      
C           105.15      7.75        -58.16      
C           108.18      3.52        -61.73      
C           108.97      4.18        -60.83      
S           106.59      4.28        -61.81      
H           108.67      5.61        -59.29      
H           109.97      3.85        -60.64      
C           108.22      5.01        -60.0       
C           106.94      5.16        -60.37      
C           111.43      0.78        -64.04      
C           110.13      1.06        -63.75      
N           112.21      1.83        -63.48      
C           111.4       2.77        -62.82      
C           108.79      0.53        -63.93      
O           108.37      -0.46       -64.47      
O           111.85      3.7         -62.14      
C           106.54      1.17        -63.04      
C           113.65      1.9         -63.49      
H           113.9619    2.78607     -64.04291   
H           114.04      1.05        -63.95      
H           113.94      2.06        -62.43      
H           105.87      1.96        -63.11      
H           106.32826   0.49947     -62.20714   
H           106.37      0.52        -63.93      
N           107.96      1.44        -63.15      
C           110.03      2.26        -63.0       
C           108.7       2.51        -62.69      
C           112.93      -2.21       -66.24      
C           111.75      -2.58       -65.58      
S           113.22      -0.6        -65.76      
H           110.37      -1.69       -64.13      
H           111.26      -3.55       -65.78      
C           111.24      -1.57       -64.74      
C           111.97      -0.47       -64.59      
C           114.57      -4.11       -69.3       
C           115.45      -3.32       -68.74      
S           113.1       -3.99       -68.37      
H           115.6       -1.88       -67.01      
H           116.41      -3.1        -69.28      
C           115.03      -2.56       -67.56      
C           113.73      -2.77       -67.25      
C           114.29      -5.13       -73.03      
C           113.99      -6.23       -72.27      
S           114.89      -3.75       -72.01      
H           113.97      -6.75       -70.19      
H           113.56      -7.13       -72.68      
C           114.22      -6.02       -70.92      
C           114.6       -4.73       -70.57      
C           114.63      -7.18       -77.35      
C           114.26      -6.05       -76.63      
N           115.38      -7.89       -76.44      
C           115.16      -7.54       -75.03      
C           113.64      -4.68       -76.67      
O           113.22      -4.0        -77.62      
O           115.72      -8.12       -73.99      
C           112.87      -2.99       -74.96      
C           116.36      -8.95       -76.61      
H           117.32342   -8.48587    -76.82097   
H           116.4       -9.51       -75.65      
H           116.04      -9.73       -77.34      
H           113.51      -2.35       -74.33      
H           111.92445   -3.07796    -74.42492   
H           112.83      -2.47       -75.95      
N           113.59      -4.23       -75.29      
C           114.54      -6.27       -75.21      
C           114.18      -5.17       -74.49      
C           114.34      -8.35       -81.04      
C           114.3       -6.99       -81.06      
S           114.56      -9.01       -79.44      
H           114.42      -5.43       -79.58      
H           114.15      -6.33       -81.87      
C           114.39      -6.5        -79.72      
C           114.58      -7.42       -78.78      
C           113.08      -11.36      -83.11      
C           113.36      -10.35      -84.01      
S           113.58      -10.88      -81.54      
H           114.13      -8.15       -83.85      
H           113.37      -10.53      -85.08      
C           113.81      -9.09       -83.38      
C           113.99      -9.27       -82.05      
C           112.68      -15.26      -83.49      
C           112.04      -14.68      -84.51      
S           113.2       -14.04      -82.33      
H           111.54      -12.74      -85.31      
H           111.5       -15.22      -85.24      
C           112.01      -13.29      -84.47      
C           112.7       -12.74      -83.41      
C           110.98      -19.92      -83.36      
C           111.96      -18.97      -82.96      
N           109.98      -19.22      -84.04      
C           110.28      -17.8       -84.08      
C           113.16      -18.78      -82.2       
O           113.89      -19.48      -81.6       
O           109.54      -16.97      -84.58      
C           114.69      -16.9       -81.77      
C           108.58      -19.61      -84.34      
H           108.24711   -19.5304    -85.37486   
H           107.89      -18.99      -83.78      
H           108.3       -20.66      -83.91      
H           114.49      -15.99      -81.16      
H           115.48547   -16.75795   -82.50154   
H           115.05      -17.6       -81.02      
N           113.44      -17.37      -82.29      
C           111.6       -17.62      -83.43      
C           112.53      -16.67      -83.13      
C           111.01      -23.95      -83.19      
C           112.14      -23.39      -82.63      
S           109.97      -22.61      -83.73      
H           113.1       -21.41      -82.41      
H           112.92      -24.03      -82.08      
C           112.21      -21.97      -82.79      
C           111.09      -21.4       -83.28      
C           109.57      -27.47      -84.12      
C           110.33      -27.6       -82.97      
S           109.51      -25.81      -84.55      
H           111.91      -26.27      -81.91      
H           110.57      -28.56      -82.51      
C           111.04      -26.35      -82.56      
C           110.65      -25.3       -83.35      
C           107.76      -30.08      -86.54      
C           107.6       -30.41      -85.24      
S           108.54      -28.55      -86.55      
H           108.3       -29.88      -83.19      
H           106.99      -31.31      -84.98      
C           108.3       -29.64      -84.28      
C           108.85      -28.49      -84.85      
H           81.28       41.91       14.65       
H           107.27      -30.54      -87.34      
