392

C           77.92       3.34        26.63       
C           77.63       2.91        27.95       
N           78.88       2.39        26.13       
C           79.27       1.46        27.27       
C           76.76       3.3         29.09       
O           75.99       4.2         29.21       
O           80.03       0.45        27.19       
C           76.85       2.67        31.57       
C           79.84       2.42        25.01       
H           80.8079     2.81143     25.32314    
H           79.68       3.17        24.33       
H           79.86       1.52        24.38       
H           77.76       2.73        32.15       
H           76.2655     1.82248     31.92801    
H           76.25       3.56        31.63       
N           77.16       2.46        30.17       
C           78.47       1.88        28.38       
C           78.2        1.65        29.74       
C           76.34       5.75        23.92       
C           75.61       5.85        25.05       
S           77.77       4.84        24.29       
H           75.5        4.82        27.0        
H           74.64       6.41        25.15       
C           76.02       4.96        26.09       
C           77.17       4.29        25.83       
C           75.29       6.33        20.23       
C           76.67       6.44        20.31       
S           74.57       6.09        21.77       
H           78.24       6.53        21.96       
H           77.25       6.44        19.39       
C           77.19       6.52        21.64       
C           76.13       6.27        22.52       
C           73.49       6.84        16.78       
C           72.68       5.98        17.53       
S           74.97       7.02        17.62       
H           72.65       5.15        19.6        
H           71.82       5.46        17.14       
C           73.16       5.78        18.88       
C           74.42       6.29        19.11       
C           71.95       6.09        12.18       
C           72.71       6.78        13.1        
N           71.27       5.08        12.9        
C           71.66       5.13        14.33       
C           73.64       7.91        13.13       
O           74.0        8.66        12.22       
O           71.13       4.29        15.13       
C           75.02       8.95        14.91       
C           70.03       4.39        12.66       
H           69.22771    5.12782     12.66716    
H           69.89       3.51        13.23       
H           70.0        4.03        11.67       
H           75.83       8.48        15.52       
H           74.65996    9.7925      15.50047    
H           75.54       9.24        14.0        
N           73.96       8.03        14.57       
C           72.52       6.31        14.46       
C           73.34       7.0         15.33       
C           71.44       6.24        8.25        
C           71.93       7.4         8.64        
S           71.46       5.11        9.59        
H           72.37       8.39        10.54       
H           72.17       8.24        7.96        
C           72.09       7.43        10.07       
C           71.75       6.34        10.76       
C           70.71       4.43        4.84        
C           71.19       5.57        4.59        
S           70.65       4.13        6.56        
H           71.66       7.52        5.65        
H           71.26       5.92        3.6         
C           71.36       6.47        5.7         
C           71.22       5.77        6.89        
C           70.46       0.99        2.88        
C           70.68       1.97        1.99        
S           70.4        1.64        4.49        
H           70.87       4.14        2.07        
H           70.72       1.79        0.92        
C           70.66       3.28        2.58        
C           70.62       3.28        3.94        
C           72.08       -2.87       0.58        
C           71.37       -2.33       1.67        
N           72.62       -1.8        -0.07       
C           72.27       -0.53       0.53        
C           70.48       -2.7        2.73        
O           70.11       -3.78       3.1         
O           72.69       0.57        0.12        
C           68.55       -1.41       3.6         
C           73.84       -1.73       -0.92       
H           74.66255    -1.32218    -0.33247    
H           73.63       -1.03       -1.7        
H           74.03       -2.76       -1.27       
H           67.89       -0.8        2.95        
H           68.29186    -1.14449    4.62517     
H           68.26       -2.43       3.36        
N           69.95       -1.44       3.25        
C           71.4        -0.89       1.64        
C           70.74       -0.38       2.74        
C           72.59       -6.56       -0.85       
C           72.02       -6.67       0.42        
S           72.69       -4.9        -1.33       
H           71.57       -5.06       2.02        
H           71.71       -7.56       0.95        
C           71.9        -5.3        1.06        
C           72.31       -4.26       0.27        
C           73.87       -8.67       -3.78       
C           72.68       -9.22       -3.45       
S           74.15       -7.13       -2.98       
H           71.06       -8.74       -1.95       
H           72.2        -9.98       -4.0        
C           72.04       -8.48       -2.37       
C           72.79       -7.42       -1.98       
C           76.82       -9.19       -6.29       
C           75.72       -9.74       -6.86       
S           76.41       -8.44       -4.81       
H           73.66       -10.25      -6.24       
H           75.7        -10.18      -7.78       
C           74.57       -9.67       -6.0        
C           74.77       -8.98       -4.88       
C           80.02       -9.72       -9.72       
C           79.74       -9.48       -8.37       
N           78.83       -9.83       -10.37      
C           77.72       -9.72       -9.47       
C           80.31       -9.21       -7.14       
O           81.46       -9.1        -6.73       
O           76.56       -9.89       -9.82       
C           79.56       -8.57       -4.87       
C           78.51       -9.53       -11.74      
H           78.37848    -8.45018    -11.80922   
H           77.62       -10.05      -12.04      
H           79.32       -9.66       -12.46      
H           78.87       -8.96       -4.2        
H           79.81205    -7.51978    -4.72297    
H           80.52       -9.06       -4.61       
N           79.24       -8.93       -6.26       
C           78.33       -9.38       -8.17       
C           78.06       -9.13       -6.91       
C           83.48       -9.39       -11.38      
C           82.81       -10.37      -12.04      
S           82.61       -8.91       -9.95       
H           80.81       -11.37      -11.81      
H           83.37       -11.09      -12.66      
C           81.53       -10.57      -11.5       
C           81.25       -9.8        -10.4       
C           87.3        -8.82       -12.11      
C           86.77       -7.66       -11.68      
S           85.99       -9.93       -12.45      
H           84.82       -7.11       -10.64      
H           87.41       -6.8        -11.45      
C           85.4        -7.82       -11.19      
C           84.84       -8.97       -11.61      
C           90.88       -10.17      -12.61      
C           90.77       -8.94       -13.23      
S           89.34       -10.55      -11.97      
H           89.34       -7.25       -13.39      
H           91.66       -8.54       -13.75      
C           89.53       -8.24       -13.02      
C           88.59       -9.08       -12.5       
C           94.22       -12.33      -15.28      
C           93.62       -12.13      -14.08      
N           93.71       -11.3       -16.09      
C           92.65       -10.62      -15.52      
C           93.58       -12.61      -12.7       
O           94.32       -13.37      -12.09      
O           92.02       -9.71       -16.01      
C           92.02       -12.33      -10.7       
C           94.11       -10.87      -17.46      
H           94.46691    -9.84046    -17.48745   
H           93.42       -11.02      -18.3       
H           94.94       -11.49      -17.79      
H           90.96       -12.29      -10.65      
H           92.47156    -11.69208   -9.94023    
H           92.44       -13.31      -10.5       
N           92.43       -12.02      -12.02      
C           92.58       -11.18      -14.17      
C           91.84       -11.14      -12.94      
C           97.09       -14.76      -16.29      
C           96.24       -15.45      -15.38      
S           96.57       -13.15      -16.44      
H           94.27       -15.06      -14.33      
H           96.47       -16.41      -15.0       
C           95.07       -14.69      -15.0       
C           95.1        -13.45      -15.61      
C           100.24      -15.69      -18.42      
C           100.24      -16.46      -17.29      
S           98.83       -14.8       -18.36      
H           99.09       -16.76      -15.42      
H           100.89      -17.28      -17.11      
C           99.29       -16.13      -16.34      
C           98.3        -15.32      -16.82      
C           103.12      -16.26      -20.98      
C           102.09      -15.52      -21.57      
S           102.55      -16.73      -19.43      
H           100.16      -14.57      -21.08      
H           102.17      -15.26      -22.58      
C           100.97      -15.19      -20.76      
C           101.08      -15.82      -19.53      
C           106.02      -17.35      -24.69      
C           105.76      -17.33      -23.39      
N           104.96      -16.71      -25.34      
C           103.94      -16.46      -24.35      
C           106.38      -17.67      -22.1       
O           107.49      -18.19      -21.86      
O           102.85      -16.2       -24.77      
C           105.78      -17.51      -19.66      
C           105.04      -15.95      -26.61      
H           104.5225    -14.9909    -26.5893    
H           104.48      -16.63      -27.26      
H           106.03      -15.86      -27.06      
H           104.9       -17.79      -19.08      
H           106.43336   -16.82728   -19.11676   
H           106.32      -18.46      -19.73      
N           105.56      -17.13      -21.1       
C           104.54      -16.69      -23.05      
C           104.36      -16.67      -21.71      
C           108.3       -19.48      -27.07      
C           108.99      -19.26      -25.85      
S           106.84      -18.5       -27.02      
H           108.66      -18.29      -23.88      
H           109.91      -19.71      -25.68      
C           108.31      -18.45      -24.88      
C           107.13      -17.93      -25.4       
C           108.17      -21.86      -30.05      
C           109.41      -21.95      -29.5       
S           107.12      -20.86      -29.05      
H           110.52      -20.97      -27.82      
H           110.22      -22.59      -29.97      
C           109.62      -21.15      -28.36      
C           108.51      -20.34      -28.15      
C           105.87      -23.68      -32.5       
C           107.13      -23.86      -32.96      
S           105.85      -22.74      -31.05      
H           109.12      -23.35      -32.33      
H           107.4       -24.32      -33.92      
C           108.05      -23.38      -32.05      
C           107.55      -22.62      -31.1       
C           103.25      -24.35      -36.42      
C           103.34      -24.39      -35.06      
N           104.55      -24.29      -36.98      
C           105.46      -24.18      -35.89      
C           102.59      -24.7       -33.92      
O           101.45      -25.07      -33.74      
O           106.71      -24.17      -36.1       
C           103.17      -25.01      -31.63      
C           105.13      -24.43      -38.22      
H           105.55376   -23.5073    -38.61642   
H           104.43      -24.79      -39.03      
H           105.89      -25.15      -38.14      
H           103.74      -24.47      -30.84      
H           103.23304   -26.08162   -31.44089   
H           102.18      -24.62      -31.54      
N           103.57      -24.6       -32.89      
C           104.68      -24.21      -34.69      
C           104.78      -24.02      -33.32      
C           100.25      -24.33      -38.97      
C           99.85       -24.94      -37.82      
S           101.88      -23.85      -38.78      
H           100.7       -25.7       -35.92      
H           98.9        -25.36      -37.75      
C           100.84      -25.1       -36.8       
C           102.05      -24.53      -37.2       
C           98.88       -23.07      -42.46      
C           97.87       -23.62      -41.73      
S           100.28      -23.12      -41.46      
H           97.46       -24.82      -39.9       
H           96.91       -23.71      -42.09      
C           98.18       -24.21      -40.47      
C           99.51       -24.01      -40.14      
C           99.85       -22.31      -46.2       
C           98.49       -22.19      -46.05      
S           100.43      -22.71      -44.61      
H           96.88       -22.26      -44.44      
H           97.79       -21.97      -46.91      
C           97.96       -22.3       -44.74      
C           98.9        -22.64      -43.81      
C           100.57      -23.66      -50.65      
C           101.12      -23.03      -49.56      
N           99.2        -23.6       -50.5       
C           98.8        -23.04      -49.24      
C           102.34      -22.6       -48.88      
O           103.48      -22.63      -49.26      
O           97.62       -23.12      -48.87      
C           102.91      -22.11      -46.55      
C           98.19       -23.96      -51.4       
H           97.9261     -23.15402   -52.08473   
H           97.22       -24.35      -50.99      
H           98.46       -24.75      -52.09      
H           102.87      -22.71      -45.65      
H           102.99963   -21.06894   -46.23975   
H           103.9       -22.46      -46.92      
N           101.92      -22.33      -47.58      
C           100.03      -22.76      -48.62      
C           100.56      -22.46      -47.42      
C           102.24      -25.51      -53.65      
C           103.07      -24.61      -53.24      
S           100.79      -25.58      -52.72      
H           103.23      -23.15      -51.55      
H           104.01      -24.48      -53.65      
C           102.59      -23.87      -52.07      
C           101.24      -24.14      -51.78      
C           102.32      -28.24      -56.45      
C           103.35      -27.38      -56.66      
S           101.56      -27.86      -54.91      
H           104.08      -25.54      -55.87      
H           104.11      -27.55      -57.47      
C           103.43      -26.34      -55.76      
C           102.54      -26.43      -54.72      
C           101.86      -31.9       -57.89      
C           100.64      -31.38      -57.57      
S           103.07      -30.68      -57.66      
H           99.85       -29.45      -56.88      
H           99.82       -31.99      -57.44      
C           100.68      -30.02      -57.23      
C           101.9       -29.5       -57.11      
C           101.05      -36.64      -57.84      
C           101.84      -35.57      -58.14      
N           99.8        -36.12      -57.47      
C           99.83       -34.69      -57.38      
C           103.18      -35.31      -58.69      
O           104.02      -36.06      -59.25      
O           98.9        -34.09      -56.89      
C           104.62      -33.22      -58.86      
C           98.64       -36.91      -56.96      
H           97.99315    -37.31076   -57.74043   
H           98.95       -37.77      -56.34      
H           98.12       -36.21      -56.28      
H           104.85      -32.47      -58.02      
H           104.6799    -32.71836   -59.82585   
H           105.4       -33.99      -58.66      
N           103.3       -33.85      -58.62      
C           101.18      -34.35      -57.8       
C           102.13      -33.31      -58.07      
C           102.04      -40.45      -58.34      
C           103.15      -39.69      -58.07      
S           100.65      -39.34      -58.26      
H           103.64      -37.55      -57.58      
H           104.12      -40.17      -57.98      
C           102.89      -38.32      -57.78      
C           101.58      -37.97      -57.82      
C           102.16      -44.29      -59.53      
C           100.94      -43.97      -58.88      
S           103.08      -42.75      -59.47      
H           99.78       -42.23      -58.18      
H           100.19      -44.72      -58.79      
C           100.72      -42.58      -58.47      
C           101.87      -41.85      -58.63      
C           103.8       -47.42      -61.23      
C           102.74      -47.87      -60.53      
S           104.04      -45.69      -61.01      
H           101.24      -46.93      -59.09      
H           102.46      -48.94      -60.63      
C           102.12      -46.79      -59.72      
C           102.72      -45.56      -59.9       
C           106.07      -51.4       -62.7       
C           105.81      -50.06      -62.9       
N           105.24      -51.82      -61.66      
C           104.5       -50.71      -61.13      
C           106.07      -48.94      -63.77      
O           106.8       -48.76      -64.78      
O           103.74      -50.82      -60.22      
C           105.42      -46.63      -63.96      
C           104.98      -53.14      -61.22      
H           104.00686   -53.45717   -61.59484   
H           104.92      -53.24      -60.19      
H           105.7       -53.87      -61.63      
H           105.34      -45.75      -63.33      
H           104.62185   -46.57967   -64.70062   
H           106.41      -46.69      -64.42      
N           105.39      -47.83      -63.11      
C           104.96      -49.56      -61.82      
C           104.74      -48.24      -61.93      
C           109.04      -53.34      -64.49      
C           108.4       -52.6       -65.42      
S           108.15      -53.2       -62.94      
H           106.7       -51.14      -65.43      
H           108.72      -52.62      -66.42      
C           107.3       -51.85      -64.83      
C           106.97      -52.12      -63.51      
C           112.28      -55.18      -65.72      
C           112.17      -55.39      -64.37      
S           110.98      -54.14      -66.26      
H           110.78      -54.82      -62.78      
H           112.91      -55.96      -63.86      
C           111.03      -54.77      -63.84      
C           110.29      -54.08      -64.71      
C           114.46      -56.35      -68.73      
C           115.19      -56.49      -67.55      
S           112.82      -55.84      -68.31      
H           114.96      -55.93      -65.31      
H           116.22      -56.81      -67.63      
C           114.54      -56.09      -66.35      
C           113.24      -55.7       -66.64      
H           78.78       1.04        30.4        
H           114.89      -56.56      -69.68      
