392

C           66.78       32.09       16.0        
C           66.75       32.22       17.35       
N           66.79       30.73       15.71       
C           67.01       29.99       16.9        
C           66.65       33.19       18.42       
O           66.58       34.4        18.48       
O           67.23       28.73       16.86       
C           67.19       33.28       20.76       
C           66.44       30.04       14.49       
H           65.44533    29.60483    14.5867     
H           67.15       29.23       14.3        
H           66.34       30.7        13.65       
H           68.02       33.94       20.58       
H           67.16852    32.75014    21.71231    
H           66.23       33.89       20.81       
N           66.95       32.4        19.65       
C           66.96       30.95       17.97       
C           67.13       31.08       19.31       
C           66.61       34.62       12.99       
C           66.28       35.34       14.11       
S           67.32       33.08       13.41       
H           65.87       34.72       16.24       
H           65.94       36.35       14.12       
C           66.25       34.45       15.29       
C           66.75       33.17       15.04       
C           67.31       35.29       9.21        
C           67.29       36.57       9.8         
S           67.09       34.03       10.39       
H           67.04       37.23       11.94       
H           67.58       37.47       9.29        
C           67.14       36.41       11.27       
C           66.86       35.12       11.68       
C           68.11       33.51       5.84        
C           68.66       34.77       5.8         
S           67.31       33.32       7.35        
H           68.66       36.57       7.01        
H           69.16       35.07       4.96        
C           68.41       35.58       6.92        
C           67.76       34.88       7.89        
C           70.15       31.66       1.98        
C           69.12       31.6        2.86        
N           71.11       32.51       2.46        
C           70.61       33.2        3.6         
C           67.9        30.87       3.18        
O           67.34       29.89       2.71        
O           71.24       34.03       4.23        
C           66.24       31.16       5.0         
C           72.57       32.48       2.23        
H           73.12623    32.17724    3.11715     
H           72.93       33.38       1.81        
H           72.85       31.7        1.5         
H           65.68       31.96       5.54        
H           66.40657    30.23692    5.55523     
H           65.55       30.99       4.15        
N           67.46       31.55       4.37        
C           69.31       32.66       3.82        
C           68.31       32.53       4.78        
C           70.82       30.31       -1.76       
C           69.76       29.71       -1.16       
S           71.36       31.45       -0.54       
H           68.59       29.74       0.75        
H           69.12       29.06       -1.81       
C           69.5        29.95       0.25        
C           70.26       30.91       0.71        
C           72.16       30.41       -5.46       
C           70.84       30.73       -5.5        
S           72.68       30.16       -3.83       
H           69.13       30.95       -4.11       
H           70.28       30.77       -6.45       
C           70.21       30.78       -4.2        
C           71.13       30.46       -3.16       
C           75.06       29.38       -7.99       
C           74.25       30.39       -8.56       
S           74.41       29.08       -6.42       
H           72.33       31.55       -8.01       
H           74.35       30.82       -9.54       
C           73.09       30.81       -7.73       
C           73.08       30.16       -6.56       
C           76.31       26.91       -11.93      
C           76.46       27.17       -10.62      
N           75.29       27.74       -12.38      
C           74.77       28.52       -11.27      
C           77.24       26.74       -9.52       
O           78.13       25.95       -9.43       
O           73.77       29.22       -11.41      
C           77.53       27.63       -7.17       
C           74.97       28.21       -13.68      
H           75.65602    28.96033    -14.07303   
H           73.97       28.69       -13.68      
H           74.98       27.38       -14.4       
H           76.87       27.79       -6.29       
H           78.22353    28.47064    -7.14898    
H           77.95       26.63       -6.99       
N           76.78       27.58       -8.4        
C           75.57       28.17       -10.15      
C           75.72       28.42       -8.78       
C           78.16       24.44       -14.27      
C           77.87       23.78       -13.11      
S           77.53       26.07       -14.28      
H           77.29       24.43       -11.02      
H           78.13       22.74       -12.96      
C           77.35       24.66       -12.11      
C           76.83       25.83       -12.68      
C           79.19       23.6        -17.92      
C           79.48       22.5        -17.16      
S           78.69       24.91       -16.98      
H           79.16       21.91       -15.05      
H           79.75       21.58       -17.58      
C           79.17       22.73       -15.8       
C           78.75       24.0        -15.5       
C           78.78       23.31       -21.78      
C           79.36       24.54       -21.49      
S           78.61       22.37       -20.38      
H           80.04       25.6        -19.75      
H           79.59       25.22       -22.29      
C           79.64       24.7        -20.08      
C           79.21       23.65       -19.36      
C           77.35       23.83       -26.35      
C           77.75       23.05       -25.32      
N           77.46       25.18       -25.94      
C           77.88       25.2        -24.49      
C           77.74       21.67       -24.91      
O           77.36       20.65       -25.5       
O           77.84       26.19       -23.82      
C           78.91       20.4        -23.06      
C           77.48       26.44       -26.64      
H           78.50135    26.79677    -26.77291   
H           76.84       27.11       -26.09      
H           77.06       26.31       -27.63      
H           79.09       20.33       -21.98      
H           79.78528    20.20702    -23.68028   
H           78.2        19.6        -23.28      
N           78.2        21.61       -23.52      
C           78.0        23.77       -24.17      
C           78.28       22.91       -23.1       
C           76.5        22.81       -30.2       
C           77.32       21.88       -29.69      
S           76.22       24.12       -29.08      
H           78.26       21.61       -27.73      
H           77.82       21.08       -30.2       
C           77.59       22.19       -28.31      
C           77.18       23.38       -27.79      
C           76.24       22.85       -34.14      
C           74.96       23.05       -33.7       
S           77.31       22.6        -32.78      
H           73.97       23.44       -31.78      
H           74.13       23.15       -34.44      
C           74.87       23.15       -32.33      
C           76.07       22.88       -31.61      
C           78.43       22.48       -37.39      
C           77.15       22.1        -37.73      
S           78.43       22.82       -35.71      
H           75.18       22.17       -36.84      
H           76.8        21.77       -38.71      
C           76.23       22.32       -36.71      
C           76.74       22.59       -35.48      
C           80.95       20.36       -40.82      
C           80.88       21.23       -39.79      
N           79.77       19.7        -40.89      
C           78.8        20.27       -39.97      
C           81.72       22.16       -39.01      
O           82.89       22.55       -39.14      
O           77.7        19.81       -39.75      
C           81.35       23.72       -37.17      
C           79.51       18.33       -41.39      
H           78.68812    18.37288    -42.10468   
H           79.24       17.82       -40.47      
H           80.37       17.83       -41.75      
H           81.08       23.42       -36.12      
H           81.02563    24.73634    -37.39345   
H           82.49       23.69       -37.32      
N           80.82       22.76       -38.11      
C           79.56       21.35       -39.25      
C           79.56       22.26       -38.23      
C           83.81       19.39       -43.26      
C           84.39       19.83       -42.14      
S           82.18       19.32       -43.07      
H           83.7        20.59       -40.19      
H           85.47       20.06       -42.08      
C           83.45       20.16       -41.11      
C           82.14       20.01       -41.54      
C           86.16       18.02       -45.98      
C           85.08       18.55       -46.59      
S           85.98       18.12       -44.28      
H           83.19       19.5        -46.01      
H           84.83       18.43       -47.61      
C           84.14       19.02       -45.7       
C           84.44       18.87       -44.44      
C           88.83       16.3        -48.34      
C           89.26       16.28       -47.02      
S           87.19       17.03       -48.34      
H           88.52       16.85       -45.09      
H           90.22       15.8        -46.68      
C           88.3        16.72       -46.1       
C           87.25       17.31       -46.64      
C           92.4        14.33       -50.91      
C           91.22       15.07       -50.91      
N           92.63       13.91       -49.58      
C           91.57       14.33       -48.75      
C           90.38       15.92       -51.71      
O           90.35       16.12       -52.84      
O           91.43       14.01       -47.6       
C           88.49       17.57       -51.3       
C           93.81       13.29       -48.95      
H           94.58337    13.99306    -48.64065   
H           94.29       12.58       -49.56      
H           93.53       12.74       -48.05      
H           88.5        18.38       -50.62      
H           87.49578    17.33195    -51.67809   
H           88.98       17.93       -52.2       
N           89.36       16.44       -50.82      
C           90.7        15.16       -49.56      
C           89.51       15.84       -49.53      
C           94.94       13.57       -53.85      
C           94.21       14.68       -54.17      
S           94.59       13.12       -52.24      
H           92.66       15.96       -53.18      
H           94.33       15.19       -55.13      
C           93.39       15.16       -53.08      
C           93.39       14.34       -51.99      
C           97.74       11.59       -55.63      
C           96.56       11.53       -56.42      
S           97.43       12.52       -54.16      
H           94.54       12.35       -56.39      
H           96.52       11.02       -57.39      
C           95.49       12.29       -55.88      
C           95.8        12.79       -54.64      
C           100.87      9.73        -57.11      
C           101.28      10.82       -56.37      
S           99.16       9.67        -56.9       
H           100.48      12.58       -55.24      
H           102.28      11.15       -56.32      
C           100.29      11.62       -55.74      
C           99.02       11.13       -55.97      
C           104.95      8.14        -59.27      
C           103.61      8.0         -58.99      
N           105.35      9.36        -58.73      
C           104.18      9.94        -58.01      
C           102.51      7.18        -59.34      
O           102.24      6.29        -60.14      
O           104.25      11.05       -57.6       
C           100.25      6.84        -58.34      
C           106.66      9.81        -58.31      
H           106.84946   9.59949     -57.25744   
H           106.82      10.91       -58.57      
H           107.39      9.17        -58.88      
H           99.34       7.4         -58.25      
H           100.38251   6.12165     -57.53098   
H           100.08      6.24        -59.28      
N           101.4       7.71        -58.53      
C           103.12      9.01        -58.11      
C           101.77      8.85        -57.89      
C           107.54      5.93        -61.45      
C           106.5       5.22        -61.0       
S           107.41      7.51        -60.74      
H           104.57      5.35        -60.0       
H           106.51      4.2         -61.21      
C           105.47      5.91        -60.33      
C           105.83      7.22        -60.01      
C           110.53      4.01        -63.14      
C           110.97      5.24        -62.78      
S           108.78      3.88        -62.88      
H           110.13      7.0         -61.78      
H           111.98      5.61        -62.89      
C           109.92      6.06        -62.25      
C           108.71      5.41        -62.15      
C           111.91      0.66        -64.8       
C           112.31      1.71        -65.53      
S           111.01      1.24        -63.48      
H           112.16      4.01        -65.54      
H           112.9       1.57        -66.43      
C           111.97      3.05        -65.02      
C           111.22      2.93        -63.9       
C           111.67      -3.14       -67.89      
C           111.76      -2.69       -66.58      
N           111.86      -1.98       -68.68      
C           111.96      -0.77       -67.91      
C           111.7       -3.2        -65.25      
O           111.63      -4.32       -64.79      
O           112.2       0.27        -68.47      
C           112.14      -2.05       -63.07      
C           112.15      -1.86       -70.14      
H           111.45496   -1.17859    -70.63062   
H           112.07      -2.82       -70.63      
H           113.2       -1.46       -70.16      
H           111.81      -1.26       -62.46      
H           113.20139   -2.20672    -62.87767   
H           111.44      -2.85       -62.75      
N           111.87      -1.94       -64.48      
C           111.82      -1.22       -66.57      
C           111.83      -0.81       -65.24      
C           110.38      -6.45       -69.58      
C           111.13      -6.77       -68.48      
S           110.19      -4.77       -69.6       
H           112.22      -5.67       -66.86      
H           111.2       -7.82       -68.07      
C           111.65      -5.6        -67.75      
C           111.29      -4.43       -68.32      
C           108.85      -7.46       -72.89      
C           108.58      -8.5        -72.05      
S           109.56      -6.2        -71.98      
H           109.26      -9.18       -69.99      
H           108.17      -9.43       -72.38      
C           109.17      -8.42       -70.76      
C           109.71      -7.2        -70.63      
C           107.98      -5.95       -76.35      
C           107.33      -7.17       -76.27      
S           108.81      -5.6        -74.85      
H           107.07      -8.68       -74.66      
H           106.52      -7.47       -76.86      
C           107.54      -7.77       -75.02      
C           108.42      -7.13       -74.2       
C           106.49      -4.17       -80.66      
C           107.37      -4.03       -79.56      
N           105.91      -5.37       -80.52      
C           106.4       -6.11       -79.41      
C           108.34      -3.2        -78.9       
O           108.92      -2.21       -79.22      
O           106.02      -7.21       -79.18      
C           108.85      -2.83       -76.56      
C           104.75      -5.85       -81.22      
H           105.02418   -6.68698    -81.86217   
H           103.97      -6.25       -80.5       
H           104.21      -5.09       -81.69      
H           109.5       -3.24       -75.75      
H           107.93538   -2.38333    -76.17005   
H           109.44      -2.04       -77.1       
N           108.61      -3.84       -77.6       
C           107.26      -5.21       -78.74      
C           107.96      -5.03       -77.5       
C           105.12      -1.22       -83.02      
C           106.04      -0.72       -82.2       
S           105.1       -2.97       -82.94      
H           107.31      -1.46       -80.52      
H           106.18      0.32        -82.07      
C           106.62      -1.68       -81.36      
C           106.19      -3.03       -81.56      
C           102.31      1.14        -84.36      
C           102.36      0.11        -85.22      
S           103.55      1.11        -83.14      
H           103.73      -1.73       -85.4       
H           101.63      -0.08       -86.04      
C           103.49      -0.79       -84.93      
C           104.14      -0.46       -83.76      
C           98.78       2.89        -84.05      
C           99.67       3.63        -83.3       
S           99.58       1.53        -84.69      
H           102.0       3.7         -83.13      
H           99.36       4.42        -82.73      
C           101.06      3.17        -83.5       
C           101.17      2.01        -84.25      
C           94.5        4.43        -82.93      
C           95.29       3.63        -83.63      
N           95.32       5.14        -82.01      
C           96.68       4.93        -82.37      
C           95.1        2.54        -84.66      
O           94.19       2.02        -85.25      
O           97.59       5.39        -81.67      
C           96.71       1.24        -85.9       
C           95.13       6.09        -80.95      
H           95.26538    7.11606     -81.29202   
H           95.67       5.85        -80.08      
H           94.14       6.02        -80.55      
H           97.57       0.68        -85.71      
H           96.7379     1.56779     -86.93917   
H           95.95       0.48        -85.75      
N           96.52       2.19        -84.86      
C           96.62       3.86        -83.36      
C           97.39       2.97        -84.05      
C           90.77       5.19        -83.2       
C           90.91       3.88        -83.61      
S           92.2        5.95        -82.59      
H           92.56       2.42        -83.58      
H           90.1        3.34        -84.03      
C           92.26       3.46        -83.43      
C           93.08       4.43        -82.88      
C           87.8        7.8         -83.22      
C           87.57       6.86        -84.22      
S           89.23       7.48        -82.44      
H           88.49       5.04        -84.96      
H           86.83       6.95        -84.97      
C           88.53       5.87        -84.26      
C           89.59       6.08        -83.38      
C           85.53       11.02       -83.55      
C           86.13       11.03       -82.26      
S           86.02       9.58        -84.33      
H           87.36       9.65        -81.01      
H           86.07       11.92       -81.67      
C           86.9        9.85        -81.95      
C           86.99       9.02        -83.04      
H           67.43       30.31       20.05       
H           84.99       11.77       -84.07      
