392

C           59.36       29.21       18.01       
C           58.99       27.96       17.95       
N           59.94       29.43       19.29       
C           60.03       28.2        20.06       
C           58.4        26.98       17.11       
O           57.99       27.0        15.98       
O           60.52       28.14       21.14       
C           58.2        24.48       17.04       
C           59.9        30.62       20.13       
H           59.04296    30.64833    20.80289    
H           59.87       31.51       19.5        
H           60.82       30.75       20.78       
H           57.45       23.86       17.53       
H           59.12042    23.89615    17.03313    
H           58.01       24.63       15.97       
N           58.37       25.73       17.77       
C           59.39       27.22       19.16       
C           58.98       25.9        18.98       
C           59.64       32.19       15.49       
C           58.98       31.13       14.85       
S           59.95       31.9        17.13       
H           58.38       29.12       15.39       
H           58.79       31.07       13.73       
C           58.77       30.02       15.7        
C           59.3        30.23       16.96       
C           59.91       35.48       13.3        
C           60.7        35.62       14.39       
S           59.08       33.91       13.4        
H           61.57       34.24       16.04       
H           61.47       36.37       14.41       
C           60.8        34.43       15.27       
C           59.89       33.5        14.89       
C           60.11       37.33       9.86        
C           58.8        36.95       10.11       
S           61.18       36.83       11.21       
H           57.7        35.98       11.73       
H           57.94       37.12       9.44        
C           58.64       36.35       11.37       
C           59.8        36.24       12.1        
C           60.32       38.08       5.12        
C           60.95       38.28       6.41        
N           59.18       37.31       5.33        
C           58.91       37.23       6.72        
C           62.04       38.88       7.07        
O           63.05       39.44       6.67        
O           57.95       36.63       7.14        
C           62.9        38.97       9.36        
C           58.41       36.45       4.4         
H           57.38937    36.78782    4.22031     
H           58.46       35.36       4.65        
H           58.9        36.41       3.47        
H           63.06       38.16       10.15       
H           62.71361    39.8231     10.01237    
H           63.84       39.05       8.85        
N           61.86       38.51       8.48        
C           60.09       37.7        7.43        
C           60.68       37.76       8.65        
C           61.78       38.38       1.48        
C           62.79       38.33       2.37        
S           60.26       38.39       2.29        
H           62.99       38.26       4.55        
H           63.85       38.5        2.09        
C           62.34       38.31       3.73        
C           60.98       38.23       3.85        
C           62.92       38.42       -2.28       
C           61.54       38.25       -2.27       
S           63.52       38.65       -0.67       
H           59.91       38.46       -0.7        
H           60.95       38.07       -3.16       
C           60.98       38.47       -0.94       
C           61.88       38.47       0.07        
C           66.02       38.48       -4.81       
C           64.86       38.56       -5.55       
S           65.5        38.48       -3.15       
H           62.61       38.52       -5.17       
H           64.88       38.89       -6.58       
C           63.63       38.39       -4.79       
C           63.81       38.38       -3.42       
C           69.54       39.61       -7.9        
C           69.16       39.28       -6.6        
N           68.43       40.18       -8.51       
C           67.27       40.08       -7.62       
C           69.66       38.65       -5.46       
O           70.77       38.28       -5.14       
O           66.19       40.44       -8.03       
C           68.65       37.64       -3.42       
C           68.44       41.12       -9.62       
H           68.21334    42.13287    -9.2871     
H           67.76       40.8        -10.36      
H           69.38       41.13       -10.14      
H           67.76       37.07       -3.21       
H           68.91873    38.18453    -2.51481    
H           69.48       36.97       -3.66       
N           68.48       38.41       -4.67       
C           67.72       39.37       -6.44       
C           67.33       38.84       -5.29       
C           73.01       40.2        -9.66       
C           73.16       40.24       -8.31       
S           71.43       39.66       -9.99       
H           72.01       39.92       -6.49       
H           74.08       40.54       -7.79       
C           72.03       39.85       -7.54       
C           70.89       39.79       -8.31       
C           75.41       40.18       -12.71      
C           75.93       41.06       -11.91      
S           73.93       39.52       -12.12      
H           75.46       41.88       -9.92       
H           76.98       41.39       -12.05      
C           75.2        41.24       -10.75      
C           74.03       40.47       -10.7       
C           76.86       37.47       -15.02      
C           77.63       38.6        -15.25      
S           75.51       37.76       -13.99      
H           77.78       40.55       -14.27      
H           78.61       38.63       -15.82      
C           77.2        39.69       -14.44      
C           76.06       39.41       -13.75      
C           78.3        34.58       -18.7       
C           77.64       34.71       -17.5       
N           78.48       35.87       -19.1       
C           78.29       36.82       -18.09      
C           77.02       34.0        -16.49      
O           77.0        32.78       -16.34      
O           78.5        37.98       -18.23      
C           76.28       34.48       -14.11      
C           78.74       36.32       -20.44      
H           77.83026    36.76798    -20.83973   
H           79.03       35.54       -21.09      
H           79.52       37.09       -20.39      
H           75.47       35.1        -13.76      
H           77.12018    34.50192    -13.41594   
H           75.95       33.44       -14.27      
N           76.63       34.96       -15.45      
C           77.66       36.07       -17.04      
C           76.93       36.21       -15.86      
C           78.91       31.53       -21.08      
C           77.91       31.22       -20.27      
S           79.61       33.06       -20.7       
H           77.01       32.05       -18.54      
H           77.24       30.35       -20.33      
C           77.8        32.18       -19.3       
C           78.45       33.35       -19.45      
C           81.18       29.86       -23.79      
C           79.98       29.21       -23.87      
S           81.17       31.09       -22.57      
H           77.99       29.38       -22.9       
H           79.79       28.43       -24.6       
C           79.0        29.71       -22.98      
C           79.49       30.81       -22.21      
C           83.81       28.71       -26.45      
C           84.46       29.43       -25.51      
S           82.18       28.56       -26.08      
H           84.09       30.52       -23.68      
H           85.52       29.5        -25.53      
C           83.6        29.95       -24.52      
C           82.31       29.58       -24.67      
C           87.27       25.83       -27.82      
C           86.14       26.46       -28.17      
N           87.39       25.88       -26.43      
C           86.37       26.75       -25.89      
C           85.21       26.66       -29.27      
O           85.27       26.43       -30.48      
O           86.32       26.99       -24.68      
C           83.39       28.32       -29.67      
C           88.0        24.84       -25.61      
H           87.26359    24.17241    -25.16265   
H           88.6        25.28       -24.83      
H           88.67       24.28       -26.29      
H           83.17       29.31       -29.17      
H           82.57629    27.7347     -30.09827   
H           83.97       28.64       -30.48      
N           84.18       27.49       -28.74      
C           85.56       27.07       -27.07      
C           84.41       27.7        -27.34      
C           90.02       24.05       -29.91      
C           88.85       23.79       -30.45      
S           89.85       25.25       -28.68      
H           86.72       24.34       -29.98      
H           88.64       23.11       -31.28      
C           87.77       24.38       -29.76      
C           88.14       25.07       -28.7       
C           93.13       22.24       -31.43      
C           93.63       23.08       -30.5       
S           91.45       22.13       -31.42      
H           92.68       24.46       -29.0       
H           94.68       23.16       -30.28      
C           92.55       23.75       -29.83      
C           91.32       23.49       -30.37      
C           95.25       19.21       -32.92      
C           95.87       20.42       -33.09      
S           93.64       19.58       -32.24      
H           95.51       22.6        -32.62      
H           96.93       20.38       -33.41      
C           95.19       21.55       -32.55      
C           93.97       21.3        -32.09      
C           98.08       16.37       -35.51      
C           97.13       16.51       -34.56      
N           98.54       17.58       -35.79      
C           97.82       18.61       -35.1       
C           96.26       15.71       -33.77      
O           96.15       14.51       -33.6       
O           98.01       19.79       -35.34      
C           94.56       16.23       -32.08      
C           99.7        17.98       -36.52      
H           100.52916   18.04219    -35.81521   
H           99.53       18.82       -37.15      
H           100.05      17.24       -37.22      
H           93.64       16.85       -32.11      
H           94.96725    16.14426    -31.07258   
H           94.12       15.3        -32.41      
N           95.47       16.65       -33.06      
C           96.84       17.86       -34.33      
C           95.79       17.99       -33.42      
C           99.53       12.97       -36.86      
C           99.1        12.74       -35.6       
S           99.31       14.59       -37.39      
H           98.46       13.95       -33.94      
H           99.02       11.79       -35.14      
C           98.71       13.97       -34.99      
C           98.74       15.12       -35.81      
C           101.66      10.55       -39.0       
C           101.58      11.67       -39.63      
S           100.78      10.5        -37.44      
H           100.47      13.54       -39.39      
H           101.93      11.87       -40.6       
C           100.68      12.52       -39.04      
C           100.27      12.18       -37.8       
C           104.45      8.23        -40.34      
C           103.4       7.48        -39.88      
S           104.01      9.88        -39.99      
H           101.43      7.79        -39.04      
H           103.45      6.4         -39.87      
C           102.36      8.2         -39.3       
C           102.47      9.5         -39.39      
C           108.02      5.18        -41.66      
C           107.48      6.48        -41.67      
N           106.97      4.37        -41.3       
C           105.86      5.18        -40.75      
C           107.85      7.85        -42.04      
O           108.89      8.41        -42.32      
O           104.87      4.72        -40.38      
C           106.74      10.11       -41.98      
C           106.85      2.89        -41.13      
H           106.90034   2.65989     -40.06576   
H           107.67      2.31        -41.52      
H           105.88      2.65        -41.59      
H           106.48      10.78       -41.13      
H           106.10267   10.3293     -42.83663   
H           107.81      10.38       -42.2       
N           106.71      8.64        -41.59      
C           106.22      6.58        -41.06      
C           105.73      7.86        -40.95      
C           111.3       3.82        -43.28      
C           111.61      5.06        -42.72      
S           109.67      3.36        -42.96      
H           110.4       6.66        -41.62      
H           112.58      5.5         -42.82      
C           110.45      5.64        -42.07      
C           109.35      4.82        -42.09      
C           112.63      1.0         -45.48      
C           113.73      1.67        -45.13      
S           111.18      1.7         -44.86      
H           114.25      3.24        -43.67      
H           114.69      1.41        -45.51      
C           113.43      2.71        -44.16      
C           112.09      2.92        -44.07      
C           111.23      -2.02       -47.71      
C           112.53      -1.66       -48.07      
S           110.74      -0.9        -46.44      
H           114.07      -0.29       -47.51      
H           113.09      -2.22       -48.82      
C           113.11      -0.65       -47.32      
C           112.37      -0.16       -46.3       
C           109.78      -4.38       -51.59      
C           109.79      -4.29       -50.26      
N           110.8       -3.54       -52.06      
C           111.33      -2.75       -50.98      
C           109.16      -4.81       -49.03      
O           108.54      -5.82       -48.85      
O           112.16      -1.85       -51.17      
C           109.35      -4.3        -46.62      
C           111.18      -3.31       -53.43      
H           111.15187   -2.27628    -53.77457   
H           110.45      -3.89       -54.02      
H           112.18      -3.69       -53.68      
H           109.22      -3.36       -46.06      
H           110.11894   -4.89575    -46.12816   
H           108.35      -4.83       -46.66      
N           109.66      -3.97       -47.96      
C           110.65      -3.24       -49.8       
C           110.42      -2.98       -48.49      
C           108.26      -7.25       -53.88      
C           108.42      -7.72       -52.64      
S           108.64      -5.57       -53.98      
H           109.27      -6.91       -50.74      
H           108.16      -8.81       -52.4       
C           108.97      -6.76       -51.78      
C           109.26      -5.56       -52.37      
C           105.94      -8.06       -56.97      
C           106.12      -9.2        -56.26      
S           106.88      -6.81       -56.26      
H           107.08      -9.71       -54.36      
H           105.56      -10.08      -56.53      
C           106.9       -8.98       -55.09      
C           107.51      -7.77       -54.97      
C           103.55      -7.62       -60.08      
C           103.71      -6.41       -59.46      
S           104.46      -8.81       -59.19      
H           104.99      -5.59       -57.92      
H           103.3       -5.43       -59.86      
C           104.67      -6.45       -58.48      
C           105.13      -7.7        -58.16      
C           99.48       -7.22       -62.68      
C           100.59      -7.97       -62.3       
N           99.48       -6.15       -61.76      
C           100.61      -6.12       -60.86      
C           101.37      -9.16       -62.7       
O           101.1       -10.04      -63.46      
O           100.78      -5.29       -59.98      
C           103.65      -10.03      -62.2       
C           98.41       -5.15       -61.49      
H           97.82018    -5.41542    -60.61264   
H           98.83       -4.19       -61.25      
H           97.8        -4.96       -62.34      
H           104.04      -10.54      -61.34      
H           104.46289   -9.48807    -62.68334   
H           103.3       -10.89      -62.75      
N           102.52      -9.14       -61.88      
C           101.36      -7.27       -61.27      
C           102.51      -8.02       -61.01      
C           96.8        -7.75       -65.41      
C           97.07       -8.93       -64.79      
S           97.67       -6.43       -64.73      
H           98.37       -9.59       -63.15      
H           96.48       -9.84       -64.91      
C           98.05       -8.77       -63.76      
C           98.44       -7.5        -63.6       
C           94.43       -7.42       -68.5       
C           94.26       -6.32       -67.66      
S           95.55       -8.51       -67.83      
H           95.34       -5.5        -65.84      
H           93.56       -5.58       -67.88      
C           95.16       -6.32       -66.54      
C           95.94       -7.45       -66.51      
C           92.23       -7.31       -71.86      
C           92.64       -8.54       -71.63      
S           92.91       -6.3        -70.56      
H           93.88       -9.75       -70.11      
H           92.36       -9.33       -72.2       
C           93.42       -8.79       -70.4       
C           93.66       -7.66       -69.74      
C           90.7        -7.95       -76.42      
C           90.96       -7.09       -75.36      
N           90.59       -9.16       -75.84      
C           90.71       -9.08       -74.38      
C           91.22       -5.7        -75.05      
O           91.05       -4.7        -75.76      
O           90.62       -10.1       -73.66      
C           92.36       -4.44       -73.25      
C           90.94       -10.48      -76.32      
H           92.02583    -10.57107   -76.29198   
H           90.72       -10.68      -77.34      
H           90.3        -11.21      -75.77      
H           93.17       -4.62       -72.64      
H           91.78722    -3.64902    -72.76587   
H           92.75       -3.91       -74.12      
N           91.67       -5.67       -73.68      
C           91.1        -7.75       -74.11      
C           91.58       -6.94       -73.06      
C           90.65       -7.53       -80.36      
C           91.34       -6.54       -79.82      
S           90.02       -8.54       -79.11      
H           91.84       -5.82       -77.72      
H           91.83       -5.76       -80.34      
C           91.42       -6.61       -78.36      
C           90.79       -7.69       -77.84      
C           89.86       -8.77       -84.02      
C           90.95       -7.94       -84.07      
S           89.25       -8.86       -82.39      
H           91.93       -6.58       -82.7       
H           91.5        -7.62       -84.97      
C           91.21       -7.37       -82.86      
C           90.54       -7.88       -81.78      
C           88.53       -10.5       -87.27      
C           87.47       -10.0       -86.57      
S           90.05       -10.11      -86.39      
H           87.12       -8.87       -84.71      
H           86.39       -10.14      -86.94      
C           87.83       -9.4        -85.36      
C           89.16       -9.41       -85.11      
H           58.82       25.18       19.8        
H           88.53       -10.62      -88.35      
