392

C           52.72       24.84       16.56       
C           52.75       26.01       17.34       
N           51.49       24.21       16.85       
C           50.83       24.82       17.99       
C           53.51       27.26       17.59       
O           54.51       27.73       17.14       
O           49.76       24.51       18.45       
C           53.37       28.96       19.41       
C           50.82       23.22       15.99       
H           49.73833    23.3319     15.9154     
H           51.01       22.23       16.26       
H           51.12       23.3        14.97       
H           53.83       28.62       20.32       
H           52.6908     29.78624    19.62006    
H           54.21       29.36       18.77       
N           52.72       27.86       18.64       
C           51.67       25.99       18.24       
C           51.63       27.1        18.99       
C           55.44       22.83       14.69       
C           55.81       24.14       14.79       
S           53.86       22.64       15.34       
H           55.0        26.02       15.57       
H           56.75       24.61       14.41       
C           54.85       24.95       15.45       
C           53.7        24.33       15.7        
C           57.89       20.25       12.92       
C           56.73       19.64       13.21       
S           57.75       21.91       13.5        
H           54.7        20.16       14.12       
H           56.55       18.56       13.04       
C           55.73       20.47       13.88       
C           56.14       21.74       14.08       
C           60.41       18.24       10.69       
C           60.91       19.44       10.95       
S           58.89       18.12       11.49       
H           60.53       21.31       12.16       
H           61.95       19.69       10.68       
C           60.14       20.34       11.72       
C           59.02       19.72       12.15       
C           62.91       16.88       6.69        
C           61.86       16.66       7.58        
N           63.55       17.99       7.1         
C           62.9        18.57       8.31        
C           60.83       15.74       7.88        
O           60.46       14.82       7.17        
O           63.32       19.6        8.79        
C           59.26       15.42       9.78        
C           64.95       18.33       6.76        
H           65.60489    18.26106    7.6286      
H           65.04       19.32       6.35        
H           65.44       17.78       5.91        
H           58.35       15.91       9.97        
H           59.74935    14.91687    10.61396    
H           58.91       14.67       9.07        
N           60.2        16.21       9.09        
C           61.82       17.63       8.63        
C           60.82       17.37       9.52        
C           63.45       15.58       3.04        
C           62.9        14.55       3.76        
S           63.94       16.91       4.07        
H           62.21       14.34       5.8         
H           62.52       13.59       3.4         
C           62.84       14.95       5.12        
C           63.3        16.16       5.47        
C           63.46       17.01       -0.61       
C           63.31       15.61       -0.73       
S           63.47       17.43       1.05        
H           63.28       13.83       0.68        
H           63.25       15.07       -1.7        
C           63.33       14.94       0.58        
C           63.42       15.82       1.6         
C           61.46       19.01       -3.21       
C           62.56       19.81       -2.83       
S           61.72       17.41       -2.57       
H           64.43       19.65       -1.59       
H           62.67       20.84       -3.11       
C           63.47       19.18       -1.96       
C           63.03       17.96       -1.61       
C           58.98       21.9        -6.26       
C           58.98       20.81       -5.38       
N           60.33       22.3        -6.25       
C           61.14       21.43       -5.47       
C           58.1        19.78       -4.8        
O           56.89       19.68       -4.79       
O           62.38       21.62       -5.27       
C           58.44       18.0        -3.01       
C           60.98       23.48       -6.84       
H           61.83052    23.24935    -7.48149    
H           61.35       24.02       -5.93       
H           60.37       24.08       -7.44       
H           58.96       17.92       -2.05       
H           58.25966    16.97346    -3.32906    
H           57.46       18.42       -2.74       
N           59.01       18.94       -4.01       
C           60.28       20.49       -4.91       
C           60.36       19.38       -4.1        
C           55.99       23.27       -8.4        
C           55.48       22.91       -7.12       
S           57.72       23.11       -8.52       
H           56.35       21.93       -5.38       
H           54.44       23.08       -6.85       
C           56.54       22.42       -6.32       
C           57.81       22.57       -6.84       
C           54.56       24.58       -11.84      
C           53.57       24.58       -10.93      
S           56.04       24.05       -11.09      
H           53.31       24.05       -8.74       
H           52.53       24.91       -11.21      
C           53.98       24.13       -9.62       
C           55.23       23.75       -9.54       
C           55.22       24.77       -15.77      
C           54.13       25.58       -15.43      
S           55.81       24.05       -14.25      
H           52.96       26.28       -13.67      
H           53.53       25.94       -16.23      
C           53.8        25.7        -14.09      
C           54.55       24.85       -13.26      
C           55.08       24.9        -20.64      
C           55.7        24.39       -19.55      
N           54.03       25.6        -20.34      
C           53.93       25.79       -18.86      
C           56.77       23.56       -19.01      
O           57.67       22.91       -19.53      
O           53.2        26.58       -18.31      
C           57.82       23.09       -16.76      
C           52.82       25.79       -21.13      
H           51.97464    25.26808    -20.68159   
H           52.89       25.32       -22.13      
H           52.52       26.92       -21.13      
H           57.51       22.59       -15.9       
H           58.66272    23.74088    -16.52705   
H           58.32       22.36       -17.46      
N           56.67       23.71       -17.54      
C           54.98       24.89       -18.34      
C           55.59       24.44       -17.16      
C           56.72       23.78       -24.1       
C           56.35       25.12       -24.2       
S           56.46       23.22       -22.46      
H           55.18       26.59       -23.08      
H           56.43       25.71       -25.11      
C           55.6        25.56       -23.09      
C           55.62       24.66       -22.0       
C           59.44       22.21       -26.32      
C           58.85       21.21       -25.62      
S           58.51       23.69       -26.16      
H           57.43       21.05       -23.94      
H           59.21       20.18       -25.62      
C           57.9        21.67       -24.72      
C           57.57       23.01       -24.83      
C           62.59       21.59       -28.55      
C           62.04       22.74       -29.03      
S           61.61       20.93       -27.27      
H           60.42       24.13       -28.4       
H           62.41       23.36       -29.81      
C           60.96       23.15       -28.28      
C           60.5        22.19       -27.3       
C           66.28       20.86       -31.42      
C           65.65       20.61       -30.25      
N           65.39       21.71       -32.23      
C           64.15       21.82       -31.47      
C           65.82       19.86       -29.05      
O           66.67       19.13       -28.54      
O           63.07       22.29       -31.92      
C           64.85       20.08       -26.8       
C           65.55       22.37       -33.54      
H           65.60678    23.43457    -33.31289   
H           64.7        22.09       -34.16      
H           66.55       22.09       -33.91      
H           63.84       19.91       -26.29      
H           65.47235    20.83111    -26.31357   
H           65.26       19.03       -26.68      
N           64.65       20.23       -28.27      
C           64.4        21.2        -30.21      
C           63.75       20.88       -29.02      
C           70.04       20.05       -32.21      
C           69.51       19.05       -31.49      
S           68.82       21.21       -32.65      
H           67.46       18.49       -30.73      
H           70.08       18.27       -31.01      
C           68.06       19.14       -31.3       
C           67.56       20.29       -31.88      
C           73.79       20.52       -32.29      
C           73.32       21.17       -33.43      
S           72.63       19.65       -31.39      
H           71.33       21.51       -34.23      
H           73.91       21.8        -34.12      
C           71.93       21.09       -33.46      
C           71.39       20.41       -32.41      
C           77.55       20.2        -30.91      
C           77.49       20.25       -32.21      
S           75.91       20.32       -30.34      
H           76.07       20.89       -33.81      
H           78.29       20.06       -32.89      
C           76.25       20.63       -32.77      
C           75.24       20.43       -31.91      
C           82.06       19.0        -30.1       
C           80.84       19.3        -29.54      
N           82.06       19.4        -31.4       
C           80.77       19.78       -31.84      
C           80.12       19.21       -28.3       
O           80.42       18.72       -27.19      
O           80.6        20.11       -32.97      
C           77.76       19.66       -27.69      
C           83.19       19.88       -32.2       
H           83.39001    20.90762    -31.89654   
H           82.95       19.99       -33.26      
H           84.09       19.35       -32.05      
H           76.69       19.54       -27.96      
H           77.8443     20.59434    -27.13502   
H           77.92       18.95       -26.94      
N           78.78       19.57       -28.72      
C           79.95       19.69       -30.58      
C           78.7        19.9        -30.1       
C           85.43       17.47       -28.5       
C           84.73       18.08       -27.52      
S           84.59       17.67       -30.04      
H           82.74       19.15       -27.38      
H           85.0        18.03       -26.51      
C           83.46       18.64       -28.01      
C           83.27       18.56       -29.4       
C           88.14       14.84       -29.28      
C           87.84       14.77       -27.95      
S           87.28       16.2        -29.97      
H           86.51       15.74       -26.52      
H           88.25       14.04       -27.3       
C           86.96       15.73       -27.49      
C           86.51       16.52       -28.44      
C           90.63       12.3        -30.93      
C           90.12       13.03       -31.92      
S           89.8        12.73       -29.48      
H           88.8        14.81       -32.17      
H           90.49       12.84       -32.92      
C           89.19       14.09       -31.45      
C           88.89       14.0        -30.12      
C           93.4        9.08        -33.12      
C           92.91       9.6         -31.94      
N           93.14       9.99        -34.12      
C           92.26       10.97       -33.63      
C           92.89       9.35        -30.51      
O           93.39       8.56        -29.73      
O           91.78       11.78       -34.34      
C           92.64       11.07       -28.76      
C           93.9        10.19       -35.41      
H           94.45142    11.13023    -35.41      
H           93.24       10.12       -36.22      
H           94.69       9.49        -35.5       
H           91.87       11.49       -28.23      
H           93.50936    11.7275     -28.76      
H           92.76       10.26       -28.16      
N           92.21       10.54       -30.03      
C           92.18       10.79       -32.21      
C           91.61       11.22       -31.08      
C           94.64       5.57        -34.12      
C           94.88       5.65        -32.8       
S           94.06       7.04        -34.76      
H           94.48       7.13        -31.25      
H           95.3        4.82        -32.15      
C           94.4        6.88        -32.25      
C           94.01       7.77        -33.22      
C           95.08       2.23        -36.13      
C           94.17       3.09        -36.78      
S           95.72       3.04        -34.71      
H           93.3        5.04        -36.5       
H           93.68       2.84        -37.68      
C           93.98       4.27        -36.12      
C           94.71       4.4         -34.98      
C           96.75       -1.17       -36.99      
C           95.85       -0.86       -37.94      
S           96.73       0.04        -35.72      
H           94.44       0.67        -38.49      
H           95.74       -1.55       -38.82      
C           95.18       0.34        -37.77      
C           95.55       1.02        -36.57      
C           97.22       -5.64       -38.34      
C           97.79       -4.5        -37.77      
N           95.94       -5.32       -38.62      
C           95.61       -4.03       -37.98      
C           99.03       -3.98       -37.16      
O           100.13      -4.38       -37.09      
O           94.49       -3.58       -38.06      
C           99.82       -1.65       -36.61      
C           95.25       -5.65       -39.91      
H           94.2042     -5.89134    -39.71985   
H           95.79       -6.38       -40.5       
H           95.29       -4.67       -40.5       
H           99.62       -1.05       -35.65      
H           99.91053    -0.93965    -37.43177   
H           100.74      -2.16       -36.43      
N           98.76       -2.62       -36.82      
C           96.84       -3.52       -37.46      
C           97.42       -2.4        -36.92      
C           98.56       -9.05       -39.76      
C           99.63       -8.13       -39.66      
S           97.09       -8.31       -39.28      
H           99.89       -6.02       -38.88      
H           100.67      -8.35       -39.94      
C           99.23       -6.84       -39.14      
C           97.87       -6.79       -38.92      
C           98.1        -12.52      -41.47      
C           99.41       -12.33      -41.37      
S           97.24       -11.21      -40.62      
H           100.79      -10.93      -40.5       
H           100.1       -13.15      -41.57      
C           99.76       -11.1       -40.7       
C           98.68       -10.35      -40.3       
C           95.58       -15.1       -42.99      
C           96.84       -15.69      -42.89      
S           95.75       -13.43      -42.6       
H           98.84       -15.17      -41.94      
H           97.1        -16.7       -43.16      
C           97.82       -14.89      -42.2       
C           97.35       -13.64      -41.88      
C           93.46       -17.9       -46.37      
C           93.36       -16.91      -45.38      
N           94.91       -18.15      -46.5       
C           95.65       -17.36      -45.54      
C           92.36       -16.19      -44.62      
O           91.18       -16.21      -44.56      
O           96.88       -17.29      -45.56      
C           92.48       -14.63      -42.62      
C           95.55       -19.28      -47.08      
H           95.52894    -20.13644   -46.40608   
H           95.17       -19.49      -48.02      
H           96.58       -19.02      -47.3       
H           92.94       -13.7       -42.44      
H           92.33426    -15.12967   -41.6623    
H           91.58       -14.29      -43.12      
N           93.17       -15.44      -43.64      
C           94.65       -16.57      -44.83      
C           94.51       -15.62      -43.8       
C           90.96       -19.52      -48.99      
C           90.31       -18.81      -48.09      
S           92.63       -19.41      -48.59      
H           90.66       -17.43      -46.39      
H           89.21       -18.7       -48.14      
C           91.06       -18.15      -47.08      
C           92.4        -18.41      -47.18      
C           89.09       -20.97      -52.09      
C           90.18       -21.73      -51.9       
S           88.96       -19.77      -50.87      
H           91.88       -21.82      -50.62      
H           90.51       -22.5       -52.57      
C           90.96       -21.33      -50.8       
C           90.43       -20.27      -50.11      
C           85.93       -20.98      -54.58      
C           86.86       -21.98      -54.9       
S           86.78       -20.04      -53.34      
H           88.62       -23.06      -54.06      
H           86.56       -22.6       -55.82      
C           87.96       -22.18      -54.03      
C           88.07       -21.18      -53.13      
C           82.99       -20.56      -58.34      
C           83.33       -20.16      -57.03      
N           83.86       -21.62      -58.71      
C           84.9        -21.84      -57.73      
C           82.92       -19.33      -55.96      
O           81.99       -18.5       -55.81      
O           85.85       -22.52      -57.97      
C           83.56       -19.15      -53.62      
C           83.69       -22.64      -59.78      
H           84.52093    -22.68225   -60.48418   
H           82.8        -22.41      -60.37      
H           83.46       -23.62      -59.46      
H           84.46       -18.83      -53.07      
H           83.09302    -19.93537   -53.02567   
H           82.92       -18.23      -53.63      
N           83.88       -19.67      -54.96      
C           84.44       -21.02      -56.56      
C           84.79       -20.6       -55.35      
C           80.18       -19.35      -60.77      
C           79.79       -19.12      -59.46      
S           81.67       -20.27      -60.76      
H           80.76       -19.35      -57.42      
H           78.93       -18.51      -59.27      
C           80.72       -19.53      -58.5       
C           81.78       -20.22      -59.04      
C           78.22       -18.48      -64.13      
C           79.52       -18.68      -64.45      
S           78.03       -18.59      -62.43      
H           81.35       -19.43      -63.36      
H           79.94       -18.55      -65.46      
C           80.35       -19.02      -63.28      
C           79.68       -19.0       -62.1       
C           75.91       -17.36      -66.9       
C           75.09       -18.03      -66.0       
S           77.57       -17.31      -66.44      
H           75.41       -18.98      -64.06      
H           74.01       -18.15      -66.19      
C           75.83       -18.49      -64.93      
C           77.19       -18.18      -65.01      
H           50.72       27.44       19.55       
H           75.52       -16.96      -67.84      
