392

C           52.76       4.54        27.46       
C           53.25       3.35        28.03       
N           53.38       5.61        28.02       
C           54.17       5.17        29.19       
C           53.26       1.86        28.07       
O           52.67       1.07        27.41       
O           54.56       6.01        29.99       
C           54.36       0.08        29.38       
C           53.16       6.98        27.8        
H           54.11436    7.39965     27.48188    
H           52.72       7.4         28.73       
H           52.4        7.17        27.11       
H           54.62       -0.09       30.42       
H           55.08615    -0.45735    28.77003    
H           53.37       -0.36       29.26       
N           54.19       1.47        29.05       
C           54.2        3.69        29.06       
C           54.77       2.59        29.62       
C           50.45       4.78        24.24       
C           50.13       3.6         24.93       
S           51.54       5.73        25.26       
H           50.95       2.56        26.61       
H           49.5        2.87        24.51       
C           50.93       3.49        26.11       
C           51.71       4.56        26.47       
C           50.57       6.06        20.59       
C           49.38       5.39        20.71       
S           51.43       6.15        22.08       
H           48.34       4.41        22.36       
H           48.64       5.19        19.91       
C           49.24       4.92        22.07       
C           50.25       5.24        22.91       
C           52.68       7.77        17.69       
C           51.36       7.55        17.24       
S           52.82       7.16        19.36       
H           49.47       6.84        18.04       
H           51.04       7.88        16.28       
C           50.53       7.03        18.24       
C           51.15       6.65        19.43       
C           55.3        8.35        13.55       
C           55.25       8.49        14.93       
N           54.06       7.79        13.17       
C           53.23       7.55        14.32       
C           55.93       8.96        16.08       
O           57.05       9.19        16.23       
O           52.1        7.11        14.18       
C           55.58       8.93        18.54       
C           53.93       7.11        11.9        
H           54.17755    6.05614     12.02731    
H           54.68       7.42        11.18       
H           52.98       7.31        11.51       
H           55.33       8.03        19.14       
H           55.05487    9.77721     18.98111    
H           56.7        9.11        18.54       
N           55.04       8.72        17.19       
C           53.99       8.01        15.48       
C           53.87       8.12        16.84       
C           57.84       10.03       11.14       
C           58.52       9.6         12.2        
S           56.17       9.64        11.19       
H           57.94       8.53        14.12       
H           59.62       9.72        12.42       
C           57.67       8.86        13.11       
C           56.39       8.77        12.67       
C           59.78       11.43       8.03        
C           58.51       12.06       8.08        
S           59.96       10.38       9.41        
H           56.64       11.62       9.2         
H           58.11       12.72       7.39        
C           57.68       11.47       9.1         
C           58.32       10.64       9.98        
C           62.93       11.48       5.53        
C           62.13       12.54       5.25        
S           62.29       10.75       7.0         
H           60.2        13.29       5.93        
H           62.21       13.15       4.34        
C           61.02       12.62       6.13        
C           60.92       11.75       7.15        
C           66.73       12.05       2.71        
C           66.04       11.18       3.57        
N           65.97       13.14       2.48        
C           64.72       13.09       3.19        
C           66.01       9.87        4.2         
O           66.84       8.98        4.27        
O           63.91       13.99       3.01        
C           64.67       8.82        6.0         
C           66.44       14.48       2.2         
H           66.84032    14.98222    3.0807      
H           65.65       15.11       1.86        
H           67.27       14.52       1.5         
H           63.65       8.49        6.1         
H           65.09733    8.9461      6.99478     
H           65.23       7.96        5.58        
N           64.87       9.95        5.09        
C           64.81       11.85       3.99        
C           64.16       11.11       4.91        
C           70.22       11.6        0.76        
C           70.03       10.67       1.72        
S           68.72       12.54       0.69        
H           68.43       10.06       3.09        
H           70.7        9.82        1.8         
C           68.79       10.74       2.37        
C           67.97       11.8        2.08        
C           72.81       13.28       -1.61       
C           73.42       12.2        -1.09       
S           71.16       13.32       -1.15       
H           72.93       10.48       0.28        
H           74.49       12.02       -1.21       
C           72.54       11.36       -0.27       
C           71.3        11.89       -0.17       
C           73.34       16.12       -4.33       
C           74.53       15.99       -3.63       
S           72.24       14.85       -3.81       
H           75.25       14.83       -1.92       
H           75.39       16.66       -3.82       
C           74.42       15.01       -2.62       
C           73.2        14.4        -2.45       
C           74.0        20.14       -6.8        
C           73.28       19.01       -6.6        
N           74.94       20.27       -5.78       
C           74.9        19.07       -5.01       
C           72.23       18.27       -7.18       
O           71.45       18.56       -8.04       
O           75.71       18.94       -4.16       
C           71.17       16.1        -6.78       
C           75.9        21.33       -5.52       
H           76.90401    21.00001    -5.7868     
H           75.86       21.64       -4.49       
H           75.61       22.22       -6.11       
H           70.68       15.58       -5.96       
H           71.6825     15.44513    -7.48469    
H           70.34       16.66       -7.27       
N           72.04       17.16       -6.28       
C           73.76       18.29       -5.47       
C           73.02       17.14       -5.29       
C           73.7        22.37       -10.05      
C           72.44       22.07       -9.62       
S           74.89       21.85       -8.85       
H           71.53       20.84       -7.98       
H           71.62       22.28       -10.31      
C           72.5        21.31       -8.37       
C           73.72       21.06       -7.83       
C           75.4        23.57       -13.27      
C           74.06       23.81       -13.43      
S           75.76       22.82       -11.78      
H           72.3        23.72       -12.05      
H           73.61       24.24       -14.35      
C           73.31       23.5        -12.28      
C           74.13       22.97       -11.3       
C           78.62       23.29       -15.46      
C           77.61       23.64       -16.29      
S           78.11       23.23       -13.82      
H           75.36       23.87       -16.13      
H           77.64       23.5        -17.34      
C           76.34       23.73       -15.59      
C           76.47       23.64       -14.26      
C           82.28       22.1        -18.47      
C           81.82       22.28       -17.18      
N           81.23       22.36       -19.34      
C           80.0        22.63       -18.59      
C           82.25       22.2        -15.82      
O           83.23       21.75       -15.27      
O           78.99       22.81       -19.16      
C           81.23       22.84       -13.68      
C           81.2        22.92       -20.73      
H           81.28359    24.0067     -20.74393   
H           80.32       22.72       -21.32      
H           82.01       22.45       -21.38      
H           80.4        22.36       -13.15      
H           81.38754    23.8855     -13.41504   
H           81.99       22.15       -13.27      
N           81.05       22.54       -15.1       
C           80.4        22.61       -17.19      
C           79.95       22.82       -15.91      
C           85.82       21.25       -20.01      
C           85.96       21.45       -18.62      
S           84.18       21.39       -20.47      
H           84.68       22.25       -16.96      
H           86.91       21.37       -18.09      
C           84.72       21.83       -17.99      
C           83.69       21.9        -18.83      
C           87.92       20.39       -23.16      
C           88.46       19.7        -22.09      
S           86.51       21.29       -22.66      
H           88.22       19.59       -19.86      
H           89.29       19.04       -22.25      
C           87.89       19.98       -20.82      
C           86.8        20.76       -20.98      
C           88.37       20.46       -27.08      
C           89.41       19.68       -26.54      
S           87.3        21.0        -25.76      
H           89.98       18.99       -24.61      
H           90.17       19.18       -27.17      
C           89.31       19.62       -25.15      
C           88.28       20.24       -24.54      
C           90.11       21.73       -31.4       
C           89.06       21.64       -30.53      
N           91.23       21.37       -30.68      
C           90.88       20.99       -29.33      
C           87.61       21.81       -30.56      
O           86.84       22.03       -31.47      
O           91.59       20.47       -28.52      
C           85.8        21.2        -29.0       
C           92.6        21.4        -31.13      
H           93.20726    21.93497    -30.39984   
H           92.79       21.89       -32.01      
H           92.87       20.36       -31.21      
H           85.44       21.68       -27.99      
H           85.46549    20.16861    -29.1115    
H           85.3        21.85       -29.69      
N           87.22       21.39       -29.24      
C           89.43       21.26       -29.21      
C           88.33       21.1        -28.39      
C           90.2        21.95       -35.28      
C           89.23       22.78       -34.86      
S           91.05       21.28       -33.93      
H           88.21       23.25       -32.83      
H           88.61       23.36       -35.5       
C           89.05       22.74       -33.39      
C           90.02       22.02       -32.77      
C           91.36       20.38       -38.48      
C           90.49       21.38       -38.89      
S           91.71       20.49       -36.78      
H           89.13       22.78       -37.79      
H           90.1        21.68       -39.9       
C           89.94       22.04       -37.78      
C           90.51       21.66       -36.6       
C           92.31       17.62       -41.13      
C           92.67       17.21       -39.88      
S           91.63       19.18       -41.05      
H           92.7        17.94       -37.82      
H           93.08       16.19       -39.8       
C           92.44       18.13       -38.86      
C           91.84       19.29       -39.27      
C           95.25       15.13       -44.05      
C           94.14       16.02       -43.91      
N           95.57       14.67       -42.84      
C           94.81       15.32       -41.81      
C           93.17       16.82       -44.63      
O           92.91       16.93       -45.81      
O           94.99       15.13       -40.61      
C           90.93       17.79       -43.98      
C           96.11       13.34       -42.45      
H           95.26993    12.69717    -42.18702   
H           96.85       13.55       -41.71      
H           96.64       12.8        -43.19      
H           90.67       18.58       -43.34      
H           90.20292    16.97821    -43.95882   
H           90.98       18.2        -44.97      
N           92.31       17.33       -43.64      
C           93.86       16.19       -42.53      
C           92.79       17.08       -42.35      
C           97.38       14.05       -47.11      
C           96.24       14.59       -47.52      
S           97.36       13.92       -45.43      
H           94.37       15.39       -46.53      
H           95.9        14.65       -48.59      
C           95.42       15.0        -46.46      
C           95.88       14.73       -45.25      
C           100.1       13.25       -49.74      
C           100.66      13.24       -48.53      
S           98.45       13.65       -49.62      
H           100.14      13.48       -46.38      
H           101.73      13.22       -48.39      
C           99.78       13.43       -47.42      
C           98.48       13.56       -47.84      
C           101.96      12.31       -53.09      
C           100.65      12.58       -53.42      
S           102.24      12.37       -51.37      
H           98.84       13.31       -52.47      
H           100.29      12.47       -54.45      
C           99.87       13.0        -52.3       
C           100.56      12.89       -51.09      
C           103.37      9.54        -56.79      
C           103.66      10.42       -55.73      
N           101.97      9.44        -56.87      
C           101.34      10.41       -55.93      
C           104.78      11.1        -55.09      
O           105.99      11.12       -55.28      
O           100.18      10.58       -55.8       
C           105.11      12.55       -53.08      
C           101.06      8.35        -57.32      
H           100.78044   7.74996     -56.45403   
H           101.64      7.73        -57.98      
H           100.2       8.64        -57.96      
H           104.7       12.73       -52.13      
H           105.44471   13.54716    -53.3659    
H           105.95      11.86       -53.14      
N           104.21      11.9        -54.07      
C           102.46      10.93       -55.17      
C           102.88      11.66       -54.02      
C           105.59      7.93        -59.61      
C           106.31      9.0         -59.05      
S           104.07      7.73        -58.84      
H           105.91      10.45       -57.36      
H           107.32      9.33        -59.26      
C           105.59      9.62        -57.99      
C           104.32      9.1         -57.79      
C           105.94      5.37        -62.46      
C           106.68      6.48        -62.8       
S           105.25      5.49        -60.87      
H           107.16      8.5         -61.85      
H           107.17      6.51        -63.73      
C           106.66      7.48        -61.8       
C           105.86      7.15        -60.74      
C           105.93      1.61        -63.6       
C           106.03      2.36        -64.69      
S           105.94      2.59        -62.19      
H           106.23      4.46        -65.22      
H           105.89      2.02        -65.66      
C           106.21      3.73        -64.43      
C           105.95      4.05        -63.1       
C           104.89      -2.67       -65.59      
C           105.21      -1.94       -64.46      
N           104.96      -1.84       -66.72      
C           105.12      -0.5        -66.23      
C           105.33      -2.08       -63.02      
O           105.12      -3.02       -62.23      
O           105.24      0.35        -67.06      
C           106.15      -0.58       -61.22      
C           104.96      -2.16       -68.19      
H           105.91864   -2.54064    -68.54244   
H           104.27      -2.97       -68.43      
H           104.56      -1.35       -68.74      
H           105.49      0.08        -60.63      
H           107.19771   -0.3602     -61.01485   
H           106.12      -1.54       -60.68      
N           105.76      -0.76       -62.63      
C           105.38      -0.59       -64.82      
C           105.71      0.14        -63.69      
C           103.61      -6.41       -65.72      
C           104.59      -6.3        -64.76      
S           103.37      -4.86       -66.49      
H           105.81      -4.6        -63.93      
H           104.92      -7.06       -64.14      
C           105.15      -4.94       -64.7       
C           104.72      -4.07       -65.66      
C           101.16      -9.41       -66.59      
C           102.3       -9.95       -66.09      
S           101.42      -7.66       -66.81      
H           104.28      -9.28       -65.36      
H           102.4       -11.04      -65.84      
C           103.3       -8.97       -65.84      
C           103.02      -7.63       -66.13      
C           98.14       -11.58      -67.79      
C           98.34       -10.44      -68.67      
S           99.17       -11.33      -66.42      
H           99.54       -8.55       -68.6       
H           97.82       -10.31      -69.56      
C           99.26       -9.53       -68.16      
C           99.95       -9.97       -67.13      
C           94.37       -13.83      -69.96      
C           95.36       -13.76      -68.98      
N           94.65       -12.72      -70.79      
C           95.76       -11.94      -70.32      
C           95.7        -14.46      -67.79      
O           95.24       -15.46      -67.21      
O           96.34       -11.11      -71.01      
C           97.62       -14.31      -66.33      
C           93.94       -12.26      -71.89      
H           93.69193    -11.20394   -71.78369   
H           93.06       -12.85      -72.01      
H           94.46       -12.47      -72.77      
H           98.13       -13.57      -65.69      
H           98.3478     -14.98736   -66.77677   
H           96.89       -14.88      -65.72      
N           96.76       -13.7       -67.27      
C           96.21       -12.63      -69.06      
C           97.07       -12.59      -68.03      
C           91.44       -16.5       -70.7       
C           92.46       -17.13      -70.07      
S           91.84       -14.78      -70.93      
H           94.4        -16.68      -69.14      
H           92.4        -18.21      -69.85      
C           93.52       -16.23      -69.67      
C           93.45       -14.94      -70.14      
C           88.7        -17.32      -73.38      
C           88.55       -18.22      -72.29      
S           90.08       -16.24      -73.0       
H           89.28       -18.44      -70.35      
H           87.76       -19.0       -72.25      
C           89.43       -17.98      -71.26      
C           90.35       -16.95      -71.45      
C           87.45       -16.84      -77.06      
C           86.5        -17.64      -76.42      
S           88.73       -16.31      -76.0       
H           86.3        -18.35      -74.39      
H           85.74       -18.1       -76.94      
C           86.86       -17.79      -75.04      
C           87.99       -17.18      -74.68      
H           55.75       2.62        30.0        
H           87.4        -16.52      -78.07      
