392

C           61.88       27.35       18.24       
C           62.07       27.18       19.55       
N           62.31       26.16       17.66       
C           63.01       25.33       18.55       
C           61.79       27.81       20.79       
O           61.17       28.77       21.12       
O           63.67       24.36       18.15       
C           62.9        27.52       23.06       
C           61.81       25.56       16.41       
H           61.29023    24.63134    16.64563    
H           62.63       25.33       15.78       
H           61.1        26.25       15.85       
H           63.93       27.73       23.14       
H           62.51613    26.94769    23.90451    
H           62.45       28.54       23.1        
N           62.55       26.98       21.77       
C           62.81       25.99       19.8        
C           63.23       25.97       21.11       
C           60.52       30.19       15.79       
C           60.12       30.39       17.09       
S           61.53       28.84       15.81       
H           60.26       29.41       19.1        
H           59.36       31.1        17.33       
C           60.62       29.45       18.04       
C           61.36       28.45       17.53       
C           59.68       32.76       13.03       
C           59.53       31.57       12.47       
S           60.12       32.6        14.67       
H           59.76       29.48       13.09       
H           59.24       31.43       11.45       
C           59.81       30.52       13.38       
C           60.16       30.88       14.61       
C           59.24       36.47       11.8        
C           59.95       35.69       10.91       
S           58.78       35.46       13.14       
H           60.97       33.78       10.76       
H           60.37       36.2        10.04       
C           60.27       34.39       11.33       
C           59.68       34.12       12.5        
C           58.39       40.32       8.97        
C           58.33       39.76       10.24       
N           58.84       39.37       8.1         
C           59.13       38.17       8.77        
C           57.9        40.0        11.57       
O           57.53       40.92       12.22       
O           59.5        37.2        8.08        
C           58.09       38.84       13.69       
C           58.91       39.4        6.65        
H           57.9144     39.23521    6.23803     
H           59.68       38.75       6.24        
H           59.31       40.32       6.3         
H           58.65       38.01       14.1        
H           57.09571    38.76998    14.13113    
H           58.73       39.67       13.96       
N           58.17       38.78       12.24       
C           58.76       38.35       10.15       
C           58.69       37.81       11.4        
C           57.63       43.9        7.5         
C           56.89       43.72       8.68        
S           58.78       42.57       7.23        
H           56.73       42.03       10.12       
H           56.06       44.32       8.99        
C           57.23       42.47       9.25        
C           58.07       41.68       8.57        
C           58.47       47.06       5.43        
C           57.14       47.1        5.74        
S           59.21       45.65       6.07        
H           55.73       45.85       6.96        
H           56.49       47.93       5.52        
C           56.68       45.96       6.56        
C           57.71       45.08       6.77        
C           61.02       49.18       3.31        
C           59.77       49.21       2.79        
S           60.92       48.25       4.76        
H           57.7        48.6        3.12        
H           59.55       49.65       1.85        
C           58.71       48.59       3.52        
C           59.22       47.99       4.62        
C           63.45       51.83       0.15        
C           63.54       50.93       1.19        
N           62.08       51.94       -0.15       
C           61.26       51.33       0.77        
C           64.46       50.18       2.08        
O           65.61       50.11       2.17        
O           60.1        51.5        0.87        
C           64.25       48.72       4.13        
C           61.48       52.18       -1.46       
H           61.3363     51.19563    -1.90548    
H           62.12       52.79       -2.12       
H           60.5        52.71       -1.39       
H           63.77       47.73       4.35        
H           64.22898    49.27347    5.06879     
H           65.29       48.41       3.89        
N           63.59       49.52       3.02        
C           62.18       50.62       1.67        
C           62.21       49.79       2.7         
C           66.06       53.43       -2.14       
C           66.63       52.31       -1.69       
S           64.47       53.62       -1.6        
H           66.0        50.71       -0.22       
H           67.67       51.98       -1.94       
C           65.81       51.62       -0.78       
C           64.55       52.18       -0.7        
C           66.87       56.76       -3.9        
C           67.85       55.83       -4.27       
S           65.65       56.04       -2.85       
H           68.31       53.79       -3.95       
H           68.67       56.09       -4.98       
C           67.66       54.59       -3.68       
C           66.53       54.56       -2.89       
C           66.64       60.6        -4.58       
C           66.98       59.97       -5.75       
S           66.57       59.36       -3.3        
H           67.1        57.97       -6.6        
H           67.31       60.51       -6.59       
C           66.93       58.56       -5.69       
C           66.74       58.07       -4.42       
C           68.81       64.88       -4.77       
C           67.82       64.08       -4.28       
N           69.34       64.19       -5.83       
C           68.74       62.88       -6.0        
C           66.86       64.04       -3.2        
O           66.39       64.95       -2.5        
O           69.03       62.1        -6.95       
C           65.04       62.36       -2.54       
C           70.58       64.37       -6.64       
H           71.26815    63.58866    -6.31743    
H           71.06       65.32       -6.49       
H           70.42       64.27       -7.75       
H           65.03       61.37       -2.36       
H           64.07608    62.5122     -3.02558    
H           65.18       62.9        -1.57       
N           66.21       62.74       -3.37       
C           67.79       62.76       -4.93       
C           66.93       61.95       -4.3        
C           70.24       68.52       -3.83       
C           69.47       68.06       -2.84       
S           70.35       67.33       -5.06       
H           68.23       66.31       -2.33       
H           69.4        68.64       -1.92       
C           68.84       66.82       -3.09       
C           69.25       66.18       -4.3        
C           72.8        71.49       -4.57       
C           71.75       72.01       -3.94       
S           72.66       69.77       -4.64       
H           70.02       71.26       -2.8        
H           71.54       73.06       -3.8        
C           70.8        71.0        -3.45       
C           71.07       69.76       -3.89       
C           75.96       72.44       -6.32       
C           75.37       73.6        -6.01       
S           74.97       71.11       -5.93       
H           73.52       74.29       -4.97       
H           75.88       74.55       -6.19       
C           74.11       73.49       -5.39       
C           73.83       72.16       -5.22       
C           79.88       70.03       -6.93       
C           79.25       71.2        -7.24       
N           79.18       69.32       -5.98       
C           77.96       70.03       -5.66       
C           79.25       72.38       -8.02       
O           80.03       72.78       -8.85       
O           77.11       69.55       -4.91       
C           77.47       74.17       -8.59       
C           79.7        68.5        -4.89       
H           79.86515    69.09598    -3.99243    
H           80.62       68.03       -5.09       
H           79.04       67.63       -4.73       
H           77.23       74.9        -7.85       
H           76.62857    73.8919     -9.22464    
H           78.21       74.62       -9.19       
N           77.99       73.03       -7.75       
C           78.03       71.21       -6.46       
C           77.26       72.26       -6.83       
C           83.19       68.58       -8.47       
C           82.39       69.2        -9.38       
S           82.31       68.61       -6.96       
H           80.47       70.39       -9.47       
H           82.69       69.37       -10.39      
C           81.21       69.85       -8.9        
C           80.95       69.48       -7.65       
C           86.43       66.75       -9.4        
C           86.34       66.64       -8.07       
S           85.23       67.73       -10.06      
H           84.93       67.25       -6.46       
H           86.93       66.0        -7.4        
C           85.28       67.39       -7.51       
C           84.52       68.01       -8.49       
C           88.58       64.68       -11.97      
C           88.91       64.28       -10.7       
S           87.39       65.92       -11.96      
H           88.34       64.93       -8.61       
H           89.73       63.59       -10.53      
C           88.19       65.06       -9.72       
C           87.38       66.01       -10.24      
C           91.97       62.67       -14.76      
C           90.72       63.26       -14.6       
N           92.65       62.82       -13.52      
C           91.72       63.29       -12.51      
C           89.64       63.82       -15.36      
O           89.42       63.92       -16.47      
O           92.05       63.38       -11.34      
C           87.22       64.09       -14.73      
C           94.02       63.15       -13.23      
H           94.15431    64.13255    -12.7776    
H           94.72       63.07       -13.99      
H           94.46       62.51       -12.43      
H           86.88       65.05       -14.39      
H           86.66221    63.24298    -14.33059   
H           87.02       64.05       -15.81      
N           88.65       64.08       -14.33      
C           90.5        63.65       -13.24      
C           89.29       64.2        -13.12      
C           92.63       61.24       -18.32      
C           93.82       61.11       -17.65      
S           91.39       62.01       -17.38      
H           94.5        61.58       -15.72      
H           94.7        60.68       -18.06      
C           93.67       61.58       -16.37      
C           92.41       62.06       -15.97      
C           92.5        60.02       -22.11      
C           91.42       60.86       -21.89      
S           93.4        59.88       -20.62      
H           90.52       62.06       -20.29      
H           90.72       61.11       -22.68      
C           91.32       61.42       -20.56      
C           92.38       60.98       -19.74      
C           93.75       57.71       -25.09      
C           92.58       58.35       -25.47      
S           94.16       58.24       -23.53      
H           91.16       59.74       -24.52      
H           92.05       58.2        -26.45      
C           92.03       59.16       -24.44      
C           92.81       59.32       -23.35      
C           94.69       55.26       -29.08      
C           94.98       55.58       -27.81      
N           93.5        55.93       -29.44      
C           92.92       56.53       -28.26      
C           95.94       55.23       -26.78      
O           96.97       54.59       -26.75      
O           91.88       57.08       -28.29      
C           96.25       55.96       -24.35      
C           92.98       56.22       -30.81      
H           93.43861    57.14439    -31.16112   
H           91.93       56.26       -30.79      
H           93.4        55.47       -31.51      
H           95.52       55.86       -23.53      
H           97.01327    56.70926    -24.13993   
H           96.76       55.01       -24.49      
N           95.57       56.07       -25.65      
C           93.94       56.39       -27.24      
C           94.35       56.75       -25.99      
C           96.67       52.9        -31.61      
C           97.47       53.26       -30.58      
S           95.05       53.51       -31.39      
H           97.45       54.77       -28.98      
H           98.46       52.99       -30.39      
C           96.85       54.17       -29.65      
C           95.55       54.44       -29.93      
C           98.4        50.42       -34.15      
C           97.15       50.69       -34.62      
S           98.67       51.33       -32.67      
H           95.45       51.98       -34.11      
H           96.74       50.23       -35.52      
C           96.39       51.56       -33.8       
C           97.09       52.05       -32.73      
C           101.3       47.93       -34.78      
C           100.69      48.09       -35.98      
S           100.74      49.12       -33.63      
H           98.86       49.1        -36.72      
H           100.98      47.6        -36.89      
C           99.63       48.99       -35.91      
C           99.45       49.6        -34.71      
C           104.39      44.22       -35.42      
C           103.81      45.16       -34.63      
N           103.98      44.6        -36.69      
C           103.1       45.75       -36.72      
C           103.64      45.43       -33.19      
O           104.16      44.95       -32.16      
O           102.61      46.23       -37.78      
C           102.74      47.28       -31.84      
C           104.68      44.35       -37.93      
H           105.40283   45.14784    -38.10048   
H           103.94      44.36       -38.74      
H           105.12      43.33       -37.93      
H           101.69      47.65       -31.64      
H           103.47218   48.02712    -31.53368   
H           102.76      46.55       -31.11      
N           102.89      46.65       -33.15      
C           103.0       46.15       -35.36      
C           102.39      46.95       -34.45      
C           106.37      41.04       -34.67      
C           106.76      41.91       -33.69      
S           105.29      41.72       -35.86      
H           106.21      43.94       -33.2       
H           107.5       41.71       -32.88      
C           106.03      43.1        -33.87      
C           105.35      43.22       -35.05      
C           106.47      37.22       -35.15      
C           107.65      37.52       -34.61      
S           105.61      38.58       -35.59      
H           108.54      39.28       -33.65      
H           108.36      36.79       -34.36      
C           107.73      38.88       -34.21      
C           106.7       39.63       -34.79      
C           105.59      33.47       -35.85      
C           104.75      34.22       -36.63      
S           106.52      34.48       -34.78      
H           104.38      36.42       -36.95      
H           103.91      33.84       -37.25      
C           105.01      35.68       -36.51      
C           105.96      35.94       -35.53      
C           103.17      29.32       -35.64      
C           104.4       30.0        -35.46      
N           102.24      30.3        -35.91      
C           102.78      31.61       -35.96      
C           105.79      29.79       -35.21      
O           106.36      28.81       -34.83      
O           102.08      32.65       -36.03      
C           107.71      31.38       -34.76      
C           100.86      30.24       -36.27      
H           100.20999   30.31857    -35.39856   
H           100.58      31.07       -36.98      
H           100.74      29.32       -36.82      
H           107.72      32.13       -33.97      
H           108.46196   31.67795    -35.49068   
H           108.03      30.42       -34.32      
N           106.38      31.13       -35.31      
C           104.21      31.42       -35.68      
C           105.41      32.06       -35.6       
C           102.16      25.44       -35.55      
C           103.4       25.61       -35.04      
S           101.69      26.92       -36.31      
H           104.56      27.36       -34.28      
H           104.02      24.82       -34.6       
C           103.71      27.0        -34.87      
C           102.9       27.89       -35.48      
C           101.4       21.86       -36.92      
C           100.15      22.47       -36.76      
S           102.7       22.9        -36.51      
H           99.53       24.52       -36.24      
H           99.21       22.06       -37.06      
C           100.34      23.83       -36.3       
C           101.63      24.19       -36.07      
C           101.24      18.29       -38.43      
C           102.6       18.57       -38.28      
S           100.32      19.69       -38.01      
H           103.95      20.17       -37.53      
H           103.36      17.84       -38.53      
C           102.9       19.82       -37.74      
C           101.74      20.58       -37.5       
C           101.53      14.41       -41.22      
C           100.83      15.14       -40.26      
N           102.71      15.08       -41.38      
C           102.73      16.31       -40.74      
C           99.49       15.25       -39.55      
O           98.57       14.45       -39.66      
O           103.64      17.16       -40.82      
C           98.67       16.6        -37.54      
C           104.03      14.61       -41.9       
H           104.8252    14.61       -41.1545    
H           104.27      15.31       -42.65      
H           103.91      13.68       -42.28      
H           98.13       17.5        -37.59      
H           99.2238     16.4722     -36.60991   
H           97.9        15.83       -37.62      
N           99.56       16.47       -38.74      
C           101.51      16.33       -39.98      
C           100.73      17.13       -39.17      
C           100.65      11.13       -43.26      
C           99.9        11.19       -42.12      
S           101.65      12.61       -43.37      
H           99.77       12.36       -40.26      
H           99.21       10.35       -41.8       
C           100.21      12.22       -41.23      
C           101.13      13.13       -41.74      
C           101.22      8.79        -46.35      
C           100.82      7.99        -45.42      
S           101.32      10.46       -45.83      
H           100.13      8.21        -43.36      
H           100.73      6.93        -45.58      
C           100.54      8.72        -44.23      
C           100.78      10.05       -44.25      
C           102.83      7.34        -49.63      
C           102.24      8.59        -49.92      
S           102.16      6.86        -48.13      
H           101.32      10.34       -48.82      
H           102.34      9.09        -50.88      
C           101.64      9.28        -48.8       
C           101.63      8.5         -47.71      
H           64.07       25.43       21.57       
H           103.87      7.08        -49.95      
