392

C           29.35       22.27       19.41       
C           30.01       21.43       18.53       
N           27.97       21.97       19.36       
C           27.74       20.92       18.42       
C           31.28       20.86       18.17       
O           32.36       21.04       18.65       
O           26.67       20.55       18.11       
C           31.9        18.77       16.82       
C           26.82       22.49       20.11       
H           26.22346    23.17384    19.50618    
H           27.03       23.15       20.91       
H           26.28       21.65       20.55       
H           31.6        18.2        15.99       
H           32.4265     18.22867    17.60604    
H           32.68       19.37       16.33       
N           30.92       19.74       17.32       
C           29.01       20.49       17.99       
C           29.59       19.65       17.13       
C           30.62       25.04       22.04       
C           31.6        24.51       21.35       
S           29.2        24.16       21.6        
H           32.09       23.06       19.73       
H           32.67       24.8        21.53       
C           31.33       23.56       20.33       
C           30.0        23.19       20.33       
C           31.41       27.96       24.45       
C           30.13       27.48       24.81       
S           31.92       27.16       22.96       
H           28.8        25.9        24.13       
H           29.58       27.81       25.65       
C           29.73       26.39       23.96       
C           30.66       26.11       23.0        
C           33.51       30.28       26.76       
C           34.07       30.28       25.52       
S           32.04       29.34       26.71       
H           33.59       29.52       23.44       
H           34.98       30.74       25.17       
C           33.28       29.58       24.49       
C           32.19       28.92       25.01       
C           37.25       31.38       29.61       
C           35.88       31.31       29.48       
N           37.84       31.18       28.43       
C           36.85       30.93       27.36       
C           34.62       31.3        30.18       
O           34.35       31.43       31.36       
O           37.13       30.79       26.21       
C           32.19       31.19       29.48       
C           39.21       30.84       28.14       
H           39.33654    29.81363    27.79553    
H           39.79       30.83       29.01       
H           39.67       31.61       27.61       
H           31.61       30.35       29.16       
H           31.75997    32.1135     29.09227    
H           32.13       31.24       30.53       
N           33.62       30.97       29.21       
C           35.59       30.85       28.1        
C           34.23       30.64       27.96       
C           39.18       31.86       33.06       
C           37.98       32.5        33.07       
S           39.34       31.22       31.46       
H           36.13       32.8        31.74       
H           37.58       32.97       33.92       
C           37.18       32.36       31.88       
C           37.81       31.81       30.84       
C           42.43       31.01       35.15       
C           41.41       31.05       36.02       
S           41.86       31.4        33.51       
H           39.26       31.54       35.98       
H           41.53       30.85       37.09       
C           40.17       31.43       35.38       
C           40.22       31.62       34.02       
C           46.31       30.12       35.14       
C           45.98       30.34       36.43       
S           44.91       30.31       34.11       
H           44.13       30.96       37.56       
H           46.72       30.36       37.25       
C           44.53       30.73       36.6        
C           43.78       30.66       35.42       
C           51.04       30.55       34.68       
C           49.86       30.07       34.21       
N           50.69       31.24       35.83       
C           49.32       31.15       36.21       
C           49.31       29.3        33.06       
O           49.74       28.88       32.02       
O           48.81       31.57       37.18       
C           47.18       28.17       32.63       
C           51.47       32.25       36.53       
H           50.93461    33.19942    36.53714    
H           52.42       32.57       36.21       
H           51.77       31.8        37.48       
H           46.19       28.61       32.29       
H           47.09452    27.27249    33.24259    
H           47.67       27.98       31.68       
N           47.92       29.21       33.38       
C           48.8        30.37       35.08       
C           47.6        29.93       34.52       
C           54.79       29.9        33.85       
C           54.13       29.93       32.66       
S           53.76       30.25       35.17       
H           51.95       30.03       32.08       
H           54.6        29.68       31.69       
C           52.71       30.06       32.92       
C           52.35       30.47       34.19       
C           58.2        29.16       35.44       
C           58.39       28.83       34.09       
S           56.59       29.78       35.85       
H           57.16       29.17       32.31       
H           59.33       28.58       33.56       
C           57.2        29.16       33.41       
C           56.11       29.51       34.17       
C           60.42       28.99       38.64       
C           61.0        28.22       37.69       
S           58.96       29.6        37.98       
H           60.43       27.34       35.63       
H           61.99       27.77       37.83       
C           60.19       28.0        36.46       
C           59.1        28.78       36.49       
C           63.84       29.4        42.0        
C           62.61       29.89       41.5        
N           64.16       28.33       41.18       
C           63.02       27.86       40.36       
C           61.54       30.87       41.72       
O           61.29       31.68       42.59       
O           63.1        26.87       39.67       
C           59.79       31.78       40.29       
C           65.51       28.03       40.59       
H           65.60186    28.39037    39.56541    
H           65.56       26.95       40.5        
H           66.37       28.37       41.19       
H           59.13       31.64       39.45       
H           60.45525    32.61511    40.07061    
H           59.18       31.95       41.17       
N           60.6        30.59       40.63       
C           62.05       29.0        40.48       
C           60.92       29.43       39.93       
C           66.18       30.45       45.0        
C           65.27       31.46       44.75       
S           66.02       29.24       43.75       
H           63.64       31.78       43.26       
H           65.32       32.43       45.24       
C           64.42       31.14       43.65       
C           64.65       29.97       42.99       
C           69.48       29.87       46.94       
C           68.73       30.74       47.66       
S           68.46       29.27       45.69       
H           66.73       31.81       47.58       
H           69.11       31.25       48.54       
C           67.52       31.17       47.13       
C           67.23       30.43       45.99       
C           72.9        27.84       47.17       
C           72.72       28.59       48.29       
S           71.67       28.33       46.09       
H           71.25       29.9        49.3        
H           73.45       28.58       49.07       
C           71.52       29.37       48.42       
C           70.79       29.27       47.21       
C           74.9        25.35       43.74       
C           75.09       25.94       44.97       
N           73.56       25.27       43.5        
C           72.79       25.57       44.74       
C           76.09       26.37       45.95       
O           77.29       26.2        45.86       
O           71.56       25.42       44.85       
C           76.16       27.82       47.93       
C           72.88       25.34       42.25       
H           72.40768    26.31937    42.17359    
H           72.11       24.6        42.07       
H           73.52       25.15       41.34       
H           75.65       27.92       48.91       
H           76.59148    28.7537     47.56925    
H           76.97       27.17       48.17       
N           75.37       27.07       46.97       
C           73.86       26.24       45.58       
C           74.02       27.05       46.68       
C           77.63       24.7        40.96       
C           78.06       25.7        41.74       
S           76.05       24.26       41.41       
H           77.25       26.77       43.56       
H           78.93       26.16       41.48       
C           77.07       26.08       42.76       
C           75.91       25.37       42.68       
C           78.11       23.13       37.48       
C           79.07       24.11       37.61       
S           77.1        23.08       38.9        
H           79.81       25.47       39.16       
H           79.87       24.25       36.86       
C           79.07       24.67       38.92       
C           78.09       24.18       39.72       
C           78.17       21.14       34.15       
C           77.13       20.6        34.92       
S           78.73       22.6        34.89       
H           76.4        20.88       37.01       
H           76.5        19.74       34.62       
C           76.97       21.27       36.17       
C           77.76       22.38       36.29       
C           77.52       19.05       29.82       
C           78.22       19.79       30.68       
N           76.29       18.84       30.36       
C           76.27       19.28       31.75       
C           79.58       20.21       30.91       
O           80.55       20.11       30.15       
O           75.39       19.08       32.54       
C           80.9        21.27       32.59       
C           75.13       18.32       29.69       
H           74.33722    19.06494    29.62166    
H           74.73       17.47       30.22       
H           75.33       17.96       28.64       
H           81.02       21.22       33.7        
H           81.08163    22.27907    32.22001    
H           81.44       20.48       32.21       
N           79.64       20.8        32.14       
C           77.53       19.98       31.92       
C           78.34       20.74       32.74       
C           78.78       17.24       26.56       
C           79.52       18.34       26.79       
S           77.61       17.05       27.86       
H           79.28       20.18       28.09       
H           80.42       18.67       26.23       
C           78.98       19.18       27.86       
C           77.96       18.62       28.53       
C           80.21       14.62       24.26       
C           78.91       14.24       24.46       
S           80.61       16.16       24.82       
H           77.25       14.88       25.84       
H           78.55       13.28       24.15       
C           78.24       15.07       25.37       
C           79.06       16.16       25.66       
C           83.26       12.61       22.85       
C           83.04       13.69       22.07       
S           81.94       12.49       23.99       
H           81.65       15.49       22.13       
H           83.74       13.98       21.4        
C           81.96       14.54       22.58       
C           81.26       14.04       23.54       
C           86.31       9.92        20.28       
C           85.74       10.25       21.48       
N           85.71       10.8        19.35       
C           84.69       11.62       19.94       
C           85.78       9.87        22.88       
O           86.6        9.24        23.53       
O           84.08       12.46       19.31       
C           84.62       10.56       24.82       
C           85.74       10.72       17.89       
H           84.94652    10.03597    17.58902    
H           86.75       10.45       17.6        
H           85.64       11.67       17.47       
H           83.54       10.72       25.11       
H           85.26772    11.15078    25.46772    
H           84.84       9.52        25.05       
N           84.83       10.73       23.45       
C           84.73       11.27       21.36       
C           84.22       11.55       22.56       
C           89.02       7.18        19.48       
C           88.41       6.92        20.64       
S           88.25       8.56        18.76       
H           86.75       7.72        21.84       
H           88.66       6.08        21.28       
C           87.4        7.85        20.99       
C           87.21       8.86        20.08       
C           91.89       5.63        17.32       
C           91.99       5.09        18.6        
S           90.64       6.8         17.26       
H           90.82       5.26        20.48       
H           92.79       4.42        18.85       
C           90.91       5.53        19.47       
C           90.14       6.5         18.9        
C           94.61       4.12        14.89       
C           93.81       4.92        14.14       
S           94.0        4.19        16.51       
H           92.06       6.32        14.45       
H           93.85       5.0         13.05       
C           92.77       5.64        14.86       
C           92.72       5.28        16.2        
C           97.81       2.61        11.67       
C           97.31       2.51        12.93       
N           97.43       3.83        11.19       
C           96.57       4.52        12.12       
C           97.32       1.69        14.15       
O           97.78       0.59        14.41       
O           95.9        5.54        11.88       
C           95.71       1.41        15.99       
C           97.73       4.65        10.02       
H           98.38406    5.48995     10.25408    
H           96.86       4.95        9.46        
H           98.33       4.12        9.3         
H           94.65       1.45        16.11       
H           96.3227     1.43883     16.89103    
H           95.71       0.4         15.57       
N           96.18       2.2         14.9        
C           96.37       3.57        13.19       
C           95.75       3.39        14.42       
C           100.23      0.22        9.59        
C           100.25      -0.06       10.91       
S           99.26       1.67        9.32        
H           99.27       0.57        12.66       
H           100.82      -0.9        11.3        
C           99.46       0.77        11.64       
C           98.77       1.76        10.98       
C           101.23      -1.47       6.29        
C           102.14      -1.83       7.2         
S           100.03      -0.41       6.92        
H           102.57      -1.3        9.42        
H           103.06      -2.32       6.96        
C           101.88      -1.31       8.52        
C           100.71      -0.56       8.5         
C           100.46      -2.16       2.66        
C           101.77      -2.43       2.87        
S           99.74       -1.62       4.1         
H           103.25      -2.42       4.49        
H           102.43      -2.67       2.04        
C           102.18      -2.23       4.19        
C           101.19      -1.85       4.99        
C           100.31      -2.92       -1.92       
C           99.54       -2.75       -0.76       
N           101.63      -2.56       -1.7        
C           101.67      -1.94       -0.36       
C           98.2        -2.79       -0.24       
O           97.08       -3.07       -0.7        
O           102.66      -1.46       0.09        
C           97.36       -2.82       2.18        
C           102.81      -2.84       -2.44       
H           103.17132   -3.81278    -2.10647    
H           102.66      -2.79       -3.53       
H           103.54      -2.08       -2.33       
H           97.43       -2.09       2.97        
H           97.37367    -3.81822    2.61758     
H           96.49       -2.61       1.75        
N           98.43       -2.51       1.19        
C           100.43      -2.22       0.23        
C           99.76       -2.2        1.39        
C           99.04       -4.33       -5.45       
C           98.25       -4.81       -4.49       
S           100.18      -3.27       -4.74       
H           98.11       -4.71       -2.23       
H           97.59       -5.64       -4.73       
C           98.63       -4.43       -3.13       
C           99.71       -3.56       -3.12       
C           98.13       -5.56       -8.95       
C           99.37       -5.1        -9.06       
S           97.6        -5.51       -7.28       
H           100.89      -4.11       -7.81       
H           99.88       -5.06       -10.03      
C           99.89       -4.55       -7.86       
C           99.0        -4.68       -6.83       
C           96.59       -7.55       -11.9       
C           95.57       -6.94       -11.18      
S           98.09       -7.14       -11.17      
H           95.38       -5.86       -9.35       
H           94.51       -7.15       -11.35      
C           96.0        -6.16       -10.1       
C           97.35       -6.14       -9.97       
C           94.43       -10.92      -14.64      
C           95.56       -10.29      -14.17      
N           93.36       -10.26      -14.09      
C           93.81       -9.27       -13.09      
C           97.0        -10.3       -14.44      
O           97.68       -10.87      -15.34      
O           93.06       -8.52       -12.58      
C           98.94       -8.99       -13.49      
C           91.89       -10.56      -14.13      
H           91.58261    -11.07963   -13.22248   
H           91.68       -11.16      -15.02      
H           91.46       -9.58       -14.23      
H           99.25       -9.01       -12.48      
H           99.33221    -8.17806    -14.10239   
H           99.44       -9.84       -13.97      
N           97.48       -9.17       -13.64      
C           95.21       -9.19       -13.32      
C           96.43       -8.56       -12.93      
C           93.91       -13.81      -17.27      
C           95.03       -14.0       -16.56      
S           93.07       -12.42      -16.71      
H           96.14       -13.07      -14.82      
H           95.68       -14.88      -16.76      
C           95.27       -13.09      -15.48      
C           94.28       -12.07      -15.46      
C           92.91       -16.28      -20.06      
C           91.89       -15.41      -19.84      
S           94.26       -15.92      -19.08      
H           91.29       -13.87      -18.39      
H           91.0        -15.44      -20.41      
C           92.05       -14.57      -18.77      
C           93.38       -14.62      -18.36      
C           92.57       -19.22      -22.61      
C           93.89       -19.0       -22.45      
S           91.58       -17.93      -21.83      
H           95.13       -17.77      -21.11      
H           94.61       -19.7       -22.97      
C           94.14       -18.01      -21.42      
C           92.99       -17.29      -21.07      
H           29.14       18.64       16.95       
H           92.2        -19.81      -23.44      
