392

C           44.19       26.11       6.88        
C           43.02       25.53       7.45        
N           44.12       25.94       5.47        
C           43.09       24.99       5.25        
C           42.29       25.41       8.62        
O           42.39       26.02       9.68        
O           42.85       24.62       4.12        
C           40.33       24.17       9.37        
C           44.6        26.8        4.4         
H           43.98018    27.69612    4.37013     
H           44.51       26.35       3.45        
H           45.58       27.21       4.54        
H           41.0        23.46       9.87        
H           39.32991    23.82939    9.10186     
H           40.04       25.06       10.02       
N           41.04       24.75       8.22        
C           42.29       24.89       6.47        
C           41.18       24.36       6.91        
C           47.58       27.44       8.6         
C           46.51       27.91       9.25        
S           46.98       26.62       7.21        
H           44.3        27.6        9.29        
H           46.71       28.49       10.13       
C           45.23       27.53       8.74        
C           45.31       26.82       7.56        
C           51.46       27.09       8.85        
C           51.13       28.08       9.75        
S           50.07       26.61       7.97        
H           49.27       29.24       10.21       
H           51.79       28.58       10.39       
C           49.73       28.45       9.6         
C           48.96       27.62       8.78        
C           54.69       25.11       7.76        
C           55.06       26.27       8.36        
S           52.95       25.2        7.62        
H           54.13       27.85       9.69        
H           56.01       26.57       8.56        
C           54.01       27.01       9.02        
C           52.79       26.55       8.63        
C           58.66       24.07       5.34        
C           57.47       23.6        5.88        
N           59.03       25.19       6.05        
C           57.93       25.69       6.84        
C           56.51       22.51       5.88        
O           56.47       21.49       5.23        
O           57.95       26.78       7.36        
C           54.2        22.19       6.61        
C           60.29       25.95       6.12        
H           60.68347    25.98577    7.13587     
H           60.24       26.95       5.77        
H           60.89       25.33       5.51        
H           53.35       22.59       6.95        
H           54.27097    21.35967    7.31258     
H           53.95       21.82       5.55        
N           55.4        23.05       6.58        
C           56.93       24.64       6.75        
C           55.62       24.32       7.05        
C           60.91       22.06       2.75        
C           60.21       21.2        3.57        
S           60.56       23.69       3.29        
H           58.88       21.36       5.37        
H           60.11       20.12       3.4         
C           59.49       21.9        4.63        
C           59.59       23.24       4.64        
C           62.42       22.01       -0.89       
C           61.56       20.95       -0.79       
S           62.44       22.92       0.58        
H           60.1        20.22       0.65        
H           61.44       20.24       -1.62       
C           60.9        20.9        0.44        
C           61.33       21.82       1.34        
C           64.45       22.5        -4.16       
C           64.52       23.68       -3.44       
S           63.34       21.38       -3.46       
H           63.88       24.46       -1.49       
H           65.08       24.58       -3.77       
C           63.79       23.64       -2.21       
C           63.15       22.45       -2.05       
C           66.13       23.88       -8.43       
C           65.8        22.87       -7.53       
N           65.94       25.06       -7.74       
C           65.35       24.8        -6.51       
C           65.77       21.47       -7.38       
O           66.19       20.56       -8.02       
O           65.05       25.67       -5.77       
C           65.61       19.9        -5.43       
C           66.02       26.45       -8.13       
H           65.03283    26.88273    -8.29227    
H           66.65       26.55       -9.0        
H           66.58       26.98       -7.41       
H           64.71       19.52       -4.97       
H           66.4406     19.99472    -4.73055    
H           65.79       19.23       -6.17       
N           65.36       21.17       -6.05       
C           65.34       23.38       -6.29       
C           64.97       22.36       -5.47       
C           67.03       23.89       -12.24      
C           66.66       22.65       -11.83      
S           67.02       24.98       -10.89      
H           66.06       21.72       -9.95       
H           66.53       21.86       -12.53      
C           66.39       22.57       -10.46      
C           66.52       23.77       -9.78       
C           68.4        24.7        -15.85      
C           67.85       25.85       -15.34      
S           68.36       23.48       -14.62      
H           66.93       26.55       -13.4       
H           67.86       26.8        -15.9       
C           67.31       25.75       -13.98      
C           67.37       24.43       -13.53      
C           69.91       24.66       -19.46      
C           69.4        23.46       -19.21      
S           69.72       25.71       -18.08      
H           68.28       22.44       -17.53      
H           69.42       22.63       -19.9       
C           68.66       23.36       -17.96      
C           68.8        24.52       -17.21      
C           72.87       23.9        -23.31      
C           72.2        24.77       -22.4       
N           72.61       22.63       -22.78      
C           71.84       22.69       -21.54      
C           71.96       26.15       -22.2       
O           72.3        27.18       -22.86      
O           71.51       21.68       -20.92      
C           70.22       27.47       -20.92      
C           72.86       21.31       -23.24      
H           72.05931    20.87326    -23.83688   
H           73.2        20.67       -22.39      
H           73.76       21.28       -23.89      
H           70.18       27.54       -19.89      
H           69.16969    27.52716    -21.2058    
H           70.8        28.28       -21.37      
N           70.98       26.23       -21.21      
C           71.5        24.07       -21.37      
C           70.77       24.98       -20.61      
C           75.12       24.43       -26.57      
C           75.21       25.54       -25.76      
S           74.29       23.18       -25.73      
H           74.39       26.35       -23.94      
H           75.76       26.45       -26.08      
C           74.43       25.48       -24.55      
C           73.88       24.22       -24.34      
C           77.23       24.43       -29.9       
C           76.93       23.09       -29.61      
S           76.71       25.44       -28.59      
H           75.9        21.98       -27.99      
H           77.42       22.37       -30.19      
C           76.2        22.95       -28.4       
C           75.89       24.14       -27.78      
C           78.68       25.4        -33.35      
C           78.8        26.45       -32.45      
S           77.77       24.12       -32.65      
H           78.35       26.88       -30.32      
H           79.23       27.39       -32.82      
C           78.25       26.23       -31.18      
C           77.74       24.99       -31.1       
C           81.82       26.78       -36.85      
C           80.87       25.86       -36.35      
N           81.86       27.82       -35.96      
C           80.93       27.65       -34.92      
C           80.22       24.58       -36.67      
O           80.29       23.86       -37.64      
O           80.81       28.47       -34.03      
C           79.01       22.84       -35.38      
C           82.25       29.17       -36.28      
H           81.4052     29.67115    -36.75251   
H           82.98       29.07       -36.99      
H           82.53       29.78       -35.44      
H           78.03       22.73       -34.9       
H           79.69241    22.1205     -34.92753   
H           78.76       22.55       -36.35      
N           79.49       24.2        -35.48      
C           80.29       26.3        -35.13      
C           79.41       25.32       -34.65      
C           83.95       25.91       -39.88      
C           82.68       25.49       -40.19      
S           84.18       26.74       -38.36      
H           80.75       25.7        -39.21      
H           82.45       24.88       -41.13      
C           81.8        25.87       -39.11      
C           82.45       26.59       -38.1       
C           87.62       25.51       -41.25      
C           86.83       24.68       -41.99      
S           86.72       26.31       -40.05      
H           84.53       24.3        -42.17      
H           87.19       24.04       -42.78      
C           85.37       24.85       -41.73      
C           85.18       25.73       -40.66      
C           91.17       26.88       -41.27      
C           91.3        25.86       -42.18      
S           89.71       26.87       -40.36      
H           89.79       24.3        -42.89      
H           92.18       25.58       -42.74      
C           90.0        25.16       -42.22      
C           89.01       25.74       -41.45      
C           95.63       28.3        -40.71      
C           94.26       28.59       -40.51      
N           95.7        26.99       -41.19      
C           94.4        26.43       -41.33      
C           93.33       29.52       -40.01      
O           93.41       30.68       -39.68      
O           94.11       25.34       -41.79      
C           90.8        29.77       -40.38      
C           96.8        26.11       -41.6       
H           97.04672    25.35574    -40.85279   
H           97.7        26.7        -41.72      
H           96.64       25.71       -42.61      
H           89.88       29.4        -39.83      
H           90.51089    30.06616    -41.38837   
H           90.96       30.64       -39.79      
N           92.06       28.98       -40.32      
C           93.52       27.47       -40.96      
C           92.19       27.69       -40.75      
C           98.53       30.81       -40.72      
C           97.43       31.55       -41.07      
S           98.21       29.12       -40.47      
H           95.21       31.03       -41.2       
H           97.49       32.65       -41.14      
C           96.26       30.68       -41.1       
C           96.55       29.36       -40.8       
C           102.3       31.37       -40.08      
C           101.73      32.6        -40.13      
S           101.17      30.15       -40.55      
H           99.75       33.49       -40.55      
H           102.32      33.51       -39.87      
C           100.36      32.61       -40.43      
C           99.87       31.3        -40.5       
C           106.08      30.28       -40.52      
C           105.87      30.81       -39.25      
S           104.54      30.27       -41.27      
H           104.32      31.71       -38.03      
H           106.74      30.94       -38.6       
C           104.6       31.37       -39.01      
C           103.77      31.11       -40.0       
C           110.4       28.09       -40.56      
C           109.24      28.54       -41.24      
N           110.05      28.16       -39.24      
C           108.77      28.87       -39.1       
C           108.75      28.7        -42.62      
O           109.31      28.54       -43.67      
O           108.24      29.11       -38.01      
C           106.98      30.11       -43.6       
C           110.35      27.2        -38.26      
H           109.5441    26.47186    -38.1681    
H           110.59      27.6        -37.31      
H           111.28      26.75       -38.51      
H           106.38      31.0        -43.36      
H           106.48987   29.50941    -44.36627   
H           107.85      30.5        -44.09      
N           107.51      29.42       -42.42      
C           108.25      29.12       -40.42      
C           107.21      29.63       -41.13      
C           112.79      25.54       -42.39      
C           113.47      26.03       -41.36      
S           111.21      26.22       -42.49      
H           113.04      27.54       -39.73      
H           114.5       25.78       -41.15      
C           112.68      27.0        -40.59      
C           111.44      27.28       -41.14      
C           113.46      22.77       -45.2       
C           114.47      23.74       -45.32      
S           112.49      23.13       -43.8       
H           115.05      25.58       -44.23      
H           115.19      23.67       -46.1       
C           114.3       24.82       -44.38      
C           113.22      24.67       -43.48      
C           112.87      19.98       -47.83      
C           112.83      19.42       -46.57      
S           113.03      21.72       -47.67      
H           113.01      20.12       -44.5       
H           112.52      18.41       -46.36      
C           113.02      20.36       -45.55      
C           113.16      21.63       -45.99      
C           110.53      16.45       -49.85      
C           111.32      17.54       -50.01      
N           109.92      16.62       -48.62      
C           110.36      17.8        -47.91      
C           112.32      18.09       -50.94      
O           112.67      17.76       -52.07      
O           109.91      18.13       -46.79      
C           113.93      20.11       -50.79      
C           108.57      16.18       -48.21      
H           107.84946   16.9726     -48.41175   
H           108.54      15.9        -47.18      
H           108.26      15.21       -48.7       
H           114.86      20.05       -50.13      
H           113.68396   21.1715     -50.81812   
H           114.1       19.81       -51.87      
N           112.88      19.27       -50.26      
C           111.41      18.34       -48.83      
C           112.39      19.29       -48.95      
C           109.9       13.21       -51.98      
C           110.26      14.18       -52.79      
S           109.67      13.82       -50.36      
H           110.93      16.27       -52.58      
H           110.39      14.02       -53.89      
C           110.49      15.41       -52.11      
C           110.2       15.41       -50.8       
C           108.88      9.7         -53.05      
C           109.18      9.61        -51.76      
S           109.07      11.22       -53.76      
H           109.72      11.19       -50.22      
H           109.24      8.66        -51.13      
C           109.52      10.91       -51.26      
C           109.52      11.85       -52.23      
C           107.62      6.3         -54.86      
C           107.69      7.34        -55.77      
S           108.15      6.95        -53.31      
H           108.25      9.5         -55.89      
H           107.39      7.17        -56.81      
C           108.25      8.58        -55.31      
C           108.47      8.59        -53.92      
C           104.42      3.39        -56.97      
C           105.54      3.53        -56.12      
N           104.28      4.59        -57.58      
C           105.29      5.56        -57.15      
C           106.28      2.76        -55.09      
O           106.34      1.58        -54.69      
O           105.22      6.68        -57.58      
C           107.58      3.62        -53.15      
C           103.59      4.87        -58.86      
H           104.16075   4.49414     -59.70916   
H           102.61      4.45        -58.91      
H           103.52      5.91        -59.08      
H           107.46      4.53        -52.54      
H           108.57114   3.16691     -53.12876   
H           106.84      2.98        -52.67      
N           106.98      3.87        -54.42      
C           105.99      4.89        -56.07      
C           106.91      5.07        -55.08      
C           102.03      0.27        -58.04      
C           103.2       -0.21       -57.52      
S           102.12      2.04        -58.13      
H           104.96      0.68        -56.46      
H           103.41      -1.23       -57.34      
C           104.05      0.83        -57.01      
C           103.71      2.14        -57.34      
C           99.04       -2.0        -58.98      
C           99.04       -0.92       -59.87      
S           100.37      -1.84       -57.81      
H           100.34      0.87        -60.24      
H           98.45       -0.94       -60.73      
C           100.15      -0.06       -59.69      
C           100.92      -0.48       -58.63      
C           97.42       -5.48       -59.71      
C           97.28       -5.17       -58.36      
S           98.23       -4.14       -60.42      
H           98.1        -3.78       -56.85      
H           96.87       -5.91       -57.71      
C           97.83       -3.95       -57.9       
C           98.32       -3.21       -58.96      
C           96.9        -10.11      -59.91      
C           96.92       -8.96       -60.59      
N           97.43       -9.87       -58.65      
C           97.62       -8.52       -58.41      
C           96.61       -8.39       -61.9       
O           96.09       -8.8        -62.9       
O           97.88       -8.1        -57.33      
C           96.33       -6.02       -62.71      
C           97.84       -10.82      -57.56      
H           98.92381    -10.77693   -57.45234   
H           97.54       -11.84      -57.69      
H           97.4        -10.48      -56.68      
H           97.04       -5.19       -62.88      
H           95.34861    -5.59019    -62.50942   
H           96.39       -6.63       -63.64      
N           96.74       -6.97       -61.65      
C           97.23       -7.91       -59.75      
C           97.19       -6.73       -60.36      
C           96.06       -13.73      -61.03      
C           96.33       -13.04      -62.11      
S           96.05       -12.7       -59.62      
H           97.25       -11.01      -62.6       
H           96.33       -13.42      -63.1       
C           96.87       -11.76      -61.84      
C           96.75       -11.39      -60.53      
C           95.46       -17.63      -61.27      
C           95.27       -17.3       -59.93      
S           95.78       -16.19      -62.26      
H           95.41       -15.27      -58.77      
H           94.95       -18.04      -59.16      
C           95.39       -15.83      -59.75      
C           95.66       -15.13      -60.9       
C           94.58       -21.24      -62.43      
C           95.28       -20.59      -63.45      
S           94.35       -20.09      -61.16      
H           96.37       -18.56      -63.69      
H           95.59       -21.08      -64.35      
C           95.74       -19.23      -63.1       
C           95.32       -18.86      -61.93      
H           40.81       23.42       6.54        
H           93.9        -22.11      -62.5       
