392

C           19.27       32.83       35.16       
C           18.09       32.97       34.54       
N           20.3        33.52       34.45       
C           19.69       34.35       33.42       
C           16.72       32.5        34.3        
O           16.06       31.6        34.77       
O           20.37       35.1        32.71       
C           14.82       33.11       32.78       
C           21.6        33.11       34.17       
H           21.64229    32.18677    33.5921     
H           22.22       33.01       35.02       
H           22.07       33.84       33.52       
H           14.81       33.06       31.67       
H           14.03716    33.70438    33.25115    
H           14.55       32.12       33.18       
N           16.15       33.42       33.37       
C           18.26       34.01       33.57       
C           17.09       34.41       33.04       
C           20.48       30.34       37.91       
C           19.25       30.04       37.57       
S           20.92       31.81       37.08       
H           17.57       30.85       36.46       
H           18.77       29.11       37.91       
C           18.59       30.99       36.78       
C           19.45       31.9        36.23       
C           23.8        28.94       39.48       
C           22.71       28.28       39.95       
S           23.19       30.12       38.46       
H           20.49       28.28       39.86       
H           22.73       27.47       40.62       
C           21.4        28.76       39.61       
C           21.52       29.7        38.7        
C           27.54       27.91       40.04       
C           27.49       28.72       38.93       
S           25.91       27.44       40.49       
H           26.01       29.85       37.9        
H           28.34       29.06       38.37       
C           26.18       29.17       38.66       
C           25.23       28.69       39.53       
C           32.1        26.85       40.93       
C           30.85       26.81       41.28       
N           32.12       27.36       39.63       
C           30.79       27.9        39.23       
C           29.95       26.28       42.37       
O           30.23       25.75       43.48       
O           30.58       28.42       38.18       
C           27.64       27.0        43.06       
C           33.23       27.76       38.76       
H           33.40688    28.83546    38.74585    
H           33.03       27.35       37.77       
H           34.14       27.33       39.05       
H           26.6        26.82       42.83       
H           27.67641    27.94675    43.59892    
H           28.01       26.29       43.8        
N           28.68       26.85       42.02       
C           29.99       27.46       40.33       
C           28.68       27.4        40.74       
C           35.21       25.44       42.78       
C           34.2        24.58       42.91       
S           34.87       26.64       41.62       
H           32.06       24.52       42.41       
H           34.24       23.61       43.52       
C           33.04       24.99       42.27       
C           33.19       26.12       41.54       
C           38.94       25.41       43.76       
C           38.51       24.1        43.76       
S           37.64       26.47       43.37       
H           36.6        22.99       43.57       
H           39.19       23.32       43.95       
C           37.12       23.98       43.53       
C           36.52       25.21       43.23       
C           42.67       26.42       43.87       
C           41.91       27.58       43.82       
S           41.57       25.16       43.54       
H           39.84       28.1        43.88       
H           42.29       28.56       43.89       
C           40.53       27.33       43.83       
C           40.2        26.07       43.95       
C           47.01       28.3        42.73       
C           46.24       27.29       43.23       
N           46.2        29.34       42.37       
C           44.86       29.02       42.77       
C           46.32       25.9        43.64       
O           47.25       25.08       43.6        
O           43.9        29.75       42.47       
C           44.64       24.15       44.46       
C           46.49       30.77       42.24       
H           46.59126    31.16056    43.25257    
H           45.59       31.25       41.83       
H           47.41       30.95       41.74       
H           43.57       23.75       44.2        
H           44.78633    24.13606    45.54004    
H           45.33       23.47       43.99       
N           44.93       25.46       43.86       
C           44.85       27.62       43.22       
C           44.1        26.51       43.61       
C           50.98       28.55       42.11       
C           50.69       27.37       42.72       
S           49.46       29.28       41.61       
H           48.9        26.58       43.75       
H           51.49       26.69       43.04       
C           49.29       27.29       43.06       
C           48.47       28.2        42.49       
C           54.59       28.96       40.62       
C           54.07       30.19       40.94       
S           53.47       27.73       41.16       
H           52.26       31.12       41.73       
H           54.68       31.09       40.96       
C           52.77       30.17       41.46       
C           52.26       28.93       41.65       
C           58.1        28.37       38.9        
C           57.6        27.14       39.36       
S           56.94       29.56       39.13       
H           55.89       26.41       40.54       
H           58.19       26.2        39.35       
C           56.35       27.28       40.08       
C           55.87       28.55       40.09       
C           62.87       27.81       38.1        
C           61.72       28.6        38.04       
N           62.52       26.7        38.84       
C           61.11       26.75       39.25       
C           61.16       29.75       37.43       
O           61.63       30.69       36.78       
O           60.57       25.97       39.99       
C           58.91       30.4        36.58       
C           63.3        25.4        39.08       
H           63.51631    25.34953    40.14713    
H           64.25       25.38       38.56       
H           62.77       24.5        38.77       
H           58.0        30.78       36.96       
H           58.66081    29.84466    35.67579    
H           59.49       31.3        36.27       
N           59.73       29.6        37.52       
C           60.56       27.93       38.62       
C           59.44       28.64       38.43       
C           66.23       28.06       36.02       
C           65.23       28.83       35.45       
S           65.63       27.21       37.43       
H           63.12       29.14       35.72       
H           65.36       29.4        34.54       
C           63.97       28.63       36.08       
C           64.0        27.81       37.21       
C           70.1        28.51       35.33       
C           69.91       27.36       36.05       
S           68.54       29.28       35.01       
H           68.14       26.07       36.61       
H           70.72       26.71       36.41       
C           68.57       27.0        36.17       
C           67.68       27.98       35.83       
C           73.59       30.24       35.45       
C           72.81       30.91       34.54       
S           72.72       28.8        35.92       
H           70.67       30.99       33.93       
H           73.21       31.71       33.9        
C           71.46       30.42       34.46       
C           71.3        29.2        35.05       
C           77.88       32.7        35.48       
C           77.09       31.62       35.86       
N           77.0        33.49       34.75       
C           75.68       32.88       34.59       
C           77.25       30.42       36.63       
O           78.23       29.99       37.33       
O           74.83       33.47       34.02       
C           75.82       28.38       37.07       
C           77.19       34.9        34.32       
H           77.58457    34.92923    33.30434    
H           77.89       35.54       34.96       
H           76.22       35.4        34.38       
H           75.16       27.67       36.53       
H           75.73315    28.42343    38.15567    
H           76.8        27.97       36.79       
N           75.93       29.78       36.48       
C           75.73       31.69       35.38       
C           74.97       30.6        35.8        
C           81.83       33.23       36.05       
C           81.18       32.75       37.15       
S           80.54       33.39       34.88       
H           79.21       32.18       37.82       
H           81.69       32.28       37.93       
C           79.79       32.61       37.03       
C           79.22       33.08       35.93       
C           85.15       33.69       34.17       
C           85.43       33.79       35.51       
S           83.46       33.5        33.89       
H           84.44       33.87       37.43       
H           86.51       34.05       35.76       
C           84.34       33.78       36.39       
C           83.19       33.44       35.65       
C           86.96       34.28       30.7        
C           87.86       33.87       31.7        
S           85.4        34.3        31.46       
H           87.86       33.42       33.86       
H           88.91       33.74       31.56       
C           87.31       33.64       33.02       
C           86.02       33.79       33.01       
C           89.98       36.08       27.43       
C           88.69       35.7        27.74       
N           90.75       35.92       28.55       
C           90.01       35.47       29.73       
C           87.37       35.45       27.21       
O           86.94       35.54       26.13       
O           90.5        35.33       30.82       
C           85.29       34.42       27.87       
C           92.16       35.97       28.71       
H           92.48515    36.67684    29.47339    
H           92.57       36.21       27.74       
H           92.66       34.99       28.88       
H           84.48       34.83       28.53       
H           85.14657    33.34086    27.81536    
H           84.94       34.89       26.9        
N           86.6        34.88       28.28       
C           88.65       35.3        29.11       
C           87.34       34.83       29.45       
C           91.77       36.85       24.0        
C           90.57       36.3        23.72       
S           91.95       37.22       25.66       
H           88.84       35.52       24.96       
H           90.29       36.0        22.72       
C           89.79       35.95       24.87       
C           90.48       36.3        26.07       
C           94.58       37.24       21.25       
C           95.02       37.89       22.36       
S           93.01       36.6        21.5        
H           94.19       38.29       24.38       
H           96.06       38.3        22.41       
C           94.04       37.85       23.43       
C           92.91       37.2        23.12       
C           96.14       35.41       18.17       
C           97.1        36.25       18.71       
S           94.6        35.67       18.95       
H           97.27       37.64       20.45       
H           98.11       36.24       18.37       
C           96.61       37.01       19.78       
C           95.29       36.89       20.05       
C           98.86       32.63       15.31       
C           97.61       32.87       15.82       
N           99.81       33.28       16.02       
C           99.13       34.21       16.84       
C           96.2        32.57       15.68       
O           95.61       31.78       15.01       
O           99.75       35.11       17.5        
C           94.11       33.77       16.13       
C           101.14      32.95       16.38       
H           101.14703   32.34539    17.28692    
H           101.68      33.9        16.55       
H           101.68      32.41       15.57       
H           93.76       34.78       16.11       
H           93.41093    33.20066    16.74258    
H           94.02       33.44       15.14       
N           95.49       33.53       16.5        
C           97.72       34.01       16.77       
C           96.39       34.38       17.15       
C           100.03      30.01       12.54       
C           98.84       29.62       12.97       
S           100.59      31.41       13.32       
H           97.37       30.36       14.42       
H           98.25       28.76       12.59       
C           98.35       30.53       13.97       
C           99.19       31.59       14.34       
C           101.57      27.96       9.61        
C           102.15      29.21       9.6         
S           100.69      27.74       11.06       
H           101.77      31.15       10.87       
H           102.81      29.52       8.84        
C           101.59      30.06       10.64       
C           100.84      29.43       11.51       
C           101.5       24.74       7.33        
C           102.42      25.7        6.78        
S           100.74      25.61       8.65        
H           103.37      27.66       7.34        
H           103.05      25.55       5.92        
C           102.61      26.87       7.55        
C           101.8       26.95       8.65        
C           100.83      21.43       3.99        
C           100.89      21.73       5.31        
N           101.54      22.41       3.34        
C           101.63      23.59       4.2         
C           100.58      21.23       6.59        
O           100.25      20.13       7.02        
O           102.08      24.65       3.84        
C           100.79      22.16       8.92        
C           102.39      22.27       2.15        
H           103.43222   22.52876    2.33688     
H           102.0       22.89       1.35        
H           102.46      21.24       1.73        
H           100.3       22.9        9.52        
H           101.82683   22.10357    9.2515      
H           100.45      21.08       9.09        
N           100.68      22.35       7.48        
C           101.25      23.12       5.51        
C           101.04      23.49       6.79        
C           100.08      18.12       2.16        
C           100.52      17.79       3.38        
S           100.06      19.81       1.87        
H           101.06      18.93       5.15        
H           100.64      16.71       3.72        
C           100.79      18.94       4.12        
C           100.63      20.11       3.47        
C           99.36       15.35       -0.4        
C           98.66       16.42       -0.84       
S           100.25      15.59       1.12        
H           98.41       18.52       -0.26       
H           98.05       16.43       -1.72       
C           98.9        17.52       -0.02       
C           99.75       17.26       1.06        
C           98.77       11.84       -2.17       
C           100.07      11.9        -1.58       
S           98.02       13.4        -1.89       
H           101.29      13.42       -0.51       
H           100.75      11.03       -1.7        
C           100.35      13.17       -1.01       
C           99.33       14.03       -0.95       
C           98.75       8.11        -5.27       
C           97.98       9.08        -4.59       
N           99.93       7.99        -4.59       
C           100.12      9.04        -3.7        
C           96.73       9.78        -4.46       
O           95.67       9.62        -5.11       
O           101.23      9.12        -3.09       
C           95.65       11.62       -3.26       
C           100.66      6.73        -4.37       
H           100.03094   6.079       -3.76289    
H           100.91      6.31        -5.38       
H           101.7       6.9         -3.98       
H           95.93       12.62       -3.04       
H           95.1119     11.39343    -2.33956    
H           95.03       11.55       -4.11       
N           96.88       10.82       -3.53       
C           98.87       9.79        -3.68       
C           98.21       10.86       -3.1        
C           98.28       5.97        -8.56       
C           97.04       6.18        -8.03       
S           99.51       6.86        -7.64       
H           96.22       7.45        -6.31       
H           96.18       5.81        -8.51       
C           97.09       7.04        -6.82       
C           98.38       7.31        -6.42       
C           99.15       3.46        -11.42      
C           99.88       4.6         -11.64      
S           98.13       3.59        -9.99       
H           100.05      6.56        -10.53      
H           100.55      4.64        -12.47      
C           99.63       5.61        -10.59      
C           98.67       5.21        -9.7        
C           98.64       -0.05       -13.12      
C           99.57       0.66        -13.88      
S           98.24       0.87        -11.7       
H           100.39      2.66        -13.93      
H           100.05      0.23        -14.76      
C           99.82       1.95        -13.35      
C           99.16       2.23        -12.14      
C           98.84       -4.59       -14.85      
C           98.15       -3.62       -14.13      
N           100.03      -4.04       -15.29      
C           100.08      -2.59       -14.9       
C           96.93       -3.37       -13.46      
O           95.95       -4.07       -13.25      
O           101.11      -1.93       -15.09      
C           95.76       -1.36       -12.62      
C           101.31      -4.75       -15.41      
H           101.85126   -4.71574    -14.4645    
H           101.91      -4.25       -16.18      
H           101.22      -5.8        -15.66      
H           95.82       -0.31       -12.88      
H           95.51027    -1.47793    -11.56557   
H           95.07       -1.87       -13.27      
N           97.0        -2.03       -12.95      
C           98.86       -2.37       -14.11      
C           98.22       -1.42       -13.32      
C           97.85       -8.17       -16.34      
C           96.86       -7.67       -15.51      
S           99.08       -6.92       -16.44      
H           96.43       -5.99       -14.23      
H           95.98       -8.22       -15.31      
C           97.11       -6.41       -14.93      
C           98.36       -5.92       -15.24      
C           97.45       -11.6       -18.3       
C           98.53       -10.93      -18.79      
S           96.95       -10.8       -16.83      
H           99.56       -9.04       -18.44      
H           99.0        -11.22      -19.68      
C           98.82       -9.73       -18.07      
C           97.99       -9.41       -17.05      
C           95.89       -14.73      -19.82      
C           95.12       -14.37      -18.83      
S           97.28       -13.75      -20.02      
H           95.02       -12.58      -17.38      
H           94.35       -15.11      -18.5       
C           95.54       -13.11      -18.22      
C           96.71       -12.71      -18.77      
H           17.04       35.15       32.26       
H           95.8        -15.63      -20.35      
