392

C           50.88       32.92       30.52       
C           49.73       33.69       30.59       
N           51.59       33.16       31.7        
C           51.04       34.33       32.36       
C           48.45       33.95       29.99       
O           47.82       33.35       29.1        
O           51.52       34.84       33.38       
C           46.36       35.2        30.91       
C           52.07       32.17       32.61       
H           51.31352    31.75871    33.27834    
H           52.7        32.68       33.35       
H           52.55       31.37       32.15       
H           46.05       36.11       30.34       
H           46.10093    35.25601    31.96728    
H           45.89       34.25       30.56       
N           47.84       35.07       30.71       
C           49.81       34.6        31.65       
C           48.76       35.47       31.67       
C           52.31       30.28       27.96       
C           51.03       30.46       27.63       
S           52.76       31.15       29.35       
H           49.36       31.72       28.57       
H           50.56       29.82       26.87       
C           50.37       31.45       28.57       
C           51.23       31.88       29.51       
C           54.69       28.09       25.68       
C           55.41       28.45       26.82       
S           53.07       28.72       25.72       
H           55.06       29.34       28.74       
H           56.44       28.09       27.04       
C           54.58       29.14       27.78       
C           53.3        29.46       27.36       
C           56.52       25.62       23.23       
C           55.48       26.31       22.54       
S           56.64       26.42       24.81       
H           53.96       27.82       22.82       
H           55.32       26.13       21.49       
C           54.73       27.18       23.3        
C           55.18       27.34       24.59       
C           59.0        23.54       19.57       
C           58.69       23.66       20.89       
N           58.34       24.56       19.01       
C           57.43       25.22       19.86       
C           59.01       23.05       22.19       
O           59.73       22.08       22.48       
O           56.69       26.13       19.5        
C           58.24       23.29       24.51       
C           58.51       25.24       17.71       
H           59.20036    26.06843    17.86878    
H           57.62       25.61       17.3        
H           58.89       24.57       16.92       
H           57.46       23.82       25.03       
H           59.18814    23.41549    25.03287    
H           57.93       22.18       24.41       
N           58.22       23.76       23.13       
C           57.73       24.68       21.17       
C           57.49       24.82       22.53       
C           61.59       21.51       17.41       
C           61.89       21.45       18.7        
S           60.16       22.44       17.12       
H           61.02       22.17       20.56       
H           62.77       20.94       19.09       
C           60.96       22.09       19.52       
C           60.01       22.77       18.87       
C           64.28       20.32       14.88       
C           63.08       20.27       14.19       
S           64.05       20.74       16.5        
H           60.96       20.84       14.63       
H           62.99       20.04       13.15       
C           61.98       20.61       15.01       
C           62.32       20.9        16.35       
C           67.56       20.31       12.83       
C           67.84       19.68       13.97       
S           65.87       20.8        12.73       
H           66.71       19.13       15.86       
H           68.76       19.14       14.28       
C           66.7        19.58       14.87       
C           65.58       20.15       14.3        
C           71.76       21.98       11.15       
C           70.51       21.49       10.9        
N           71.92       21.86       12.52       
C           70.82       21.15       13.14       
C           69.57       21.27       9.81        
O           69.67       21.52       8.63        
O           70.73       20.98       14.37       
C           67.37       20.34       9.6         
C           72.76       22.66       13.35       
H           72.27679    23.31128    14.07831    
H           73.34       23.48       12.82       
H           73.52       22.13       13.99       
H           66.38       20.55       10.03       
H           67.40573    19.31086    9.24266     
H           67.45       21.0        8.75        
N           68.43       20.68       10.48       
C           69.9        20.92       12.06       
C           68.58       20.63       11.84       
C           73.68       23.73       8.22        
C           74.54       23.25       9.13        
S           72.11       23.53       8.8         
H           74.48       22.01       10.88       
H           75.65       23.14       8.88        
C           73.93       22.59       10.2        
C           72.59       22.66       10.22       
C           75.04       25.57       5.09        
C           73.73       25.95       5.21        
S           75.52       24.56       6.42        
H           72.0        25.46       6.53        
H           73.18       26.62       4.51        
C           73.05       25.21       6.24        
C           73.89       24.45       7.01        
C           78.37       26.29       2.93        
C           77.39       27.15       2.63        
S           77.68       25.18       4.11        
H           75.27       27.68       3.12        
H           77.53       27.99       1.95        
C           76.16       27.01       3.26        
C           76.11       25.94       4.13        
C           81.97       28.33       0.61        
C           81.48       27.23       1.26        
N           81.02       29.3        0.76        
C           79.97       28.89       1.6         
C           81.84       25.82       1.57        
O           82.83       25.15       1.4         
O           79.12       29.68       2.05        
C           80.5        23.95       2.3         
C           80.89       30.65       0.28        
H           80.03876    30.81181    -0.38129    
H           81.8        30.86       -0.26       
H           80.67       31.28       1.17        
H           79.65       23.74       1.72        
H           80.64433    23.58575    3.31715     
H           81.26       23.5        1.72        
N           80.67       25.37       2.3         
C           80.23       27.51       1.92        
C           79.71       26.38       2.5         
C           85.28       29.02       -1.37       
C           85.16       27.69       -1.16       
S           83.98       29.82       -0.68       
H           83.76       26.33       -0.19       
H           85.89       27.01       -1.49       
C           84.03       27.32       -0.47       
C           83.2        28.4        -0.14       
C           88.19       31.46       -2.28       
C           88.47       30.3        -2.87       
S           86.61       31.42       -1.58       
H           87.53       28.26       -3.01       
H           89.39       30.15       -3.44       
C           87.44       29.32       -2.66       
C           86.4        29.76       -1.88       
C           91.07       34.16       -2.23       
C           90.02       34.59       -1.41       
S           90.48       32.75       -3.08       
H           88.13       33.89       -0.6        
H           90.07       35.51       -0.78       
C           88.93       33.68       -1.32       
C           89.07       32.57       -2.15       
C           95.26       35.03       -4.34       
C           94.23       35.56       -3.58       
N           95.0        33.66       -4.45       
C           93.83       33.21       -3.78       
C           93.65       36.73       -2.95       
O           94.0        37.95       -2.86       
O           93.58       32.01       -3.63       
C           91.4        37.39       -2.22       
C           95.35       32.98       -5.66       
H           94.48223    32.62725    -6.21735    
H           96.15       32.22       -5.5        
H           95.8        33.64       -6.32       
H           90.74       37.12       -1.48       
H           90.83624    37.56617    -3.1361     
H           92.02       38.19       -1.92       
N           92.34       36.29       -2.46       
C           93.25       34.5        -3.33       
C           92.21       34.93       -2.61       
C           98.92       36.32       -5.18       
C           98.13       37.41       -5.0        
S           97.99       34.87       -4.91       
H           96.06       37.85       -4.3        
H           98.55       38.45       -4.99       
C           96.79       37.12       -4.61       
C           96.48       35.72       -4.62       
C           102.67      35.22       -5.4        
C           102.62      36.59       -5.55       
S           101.03      34.56       -5.37       
H           101.19      38.23       -5.59       
H           103.54      37.17       -5.69       
C           101.35      37.15       -5.53       
C           100.36      36.22       -5.48       
C           105.06      32.06       -5.3        
C           105.85      33.18       -5.25       
S           103.4       32.56       -5.4        
H           105.54      35.42       -4.93       
H           106.93      33.16       -5.21       
C           105.11      34.43       -5.12       
C           103.8       34.25       -5.26       
C           108.05      28.27       -5.27       
C           106.78      28.82       -5.2        
N           108.92      29.31       -5.65       
C           108.18      30.56       -5.64       
C           105.4       28.48       -4.98       
O           104.97      27.4        -4.68       
O           108.75      31.63       -5.92       
C           103.16      29.45       -5.24       
C           110.15      29.2        -6.36       
H           109.89852   29.32234    -7.41351    
H           110.62      28.29       -6.13       
H           110.91      30.01       -6.12       
H           102.58      30.15       -5.86       
H           102.64146   29.19773    -4.31503    
H           103.13      28.57       -5.91       
N           104.67      29.65       -5.1        
C           106.77      30.23       -5.37       
C           105.46      30.74       -5.31       
C           109.07      24.4        -5.3        
C           107.73      24.57       -5.61       
S           109.79      26.01       -5.03       
H           106.33      26.19       -6.06       
H           107.08      23.73       -5.8        
C           107.35      25.89       -5.75       
C           108.33      26.83       -5.4        
C           110.68      20.92       -5.9        
C           111.59      21.65       -5.16       
S           109.27      21.86       -6.24       
H           111.58      23.7        -4.25       
H           112.63      21.36       -5.01       
C           111.05      22.93       -4.82       
C           109.81      23.22       -5.28       
C           111.65      17.36       -7.34       
C           110.45      17.77       -7.82       
S           112.29      18.74       -6.42       
H           108.85      19.33       -7.52       
H           109.88      17.07       -8.41       
C           109.87      18.95       -7.26       
C           110.79      19.63       -6.5        
C           112.68      13.3        -9.99       
C           113.08      14.28       -9.08       
N           111.57      13.81       -10.61      
C           110.99      14.96       -9.89       
C           114.09      14.58       -8.11       
O           115.13      14.03       -7.86       
O           109.87      15.45       -10.21      
C           114.37      16.24       -6.27       
C           111.19      13.65       -12.03      
H           111.19726   14.55803    -12.63293   
H           110.22      13.11       -12.13      
H           111.98      13.06       -12.57      
H           113.87      16.92       -5.55       
H           115.33774   16.67548    -6.51885    
H           114.63      15.37       -5.77       
N           113.66      15.76       -7.41       
C           112.07      15.33       -8.93       
C           112.44      16.19       -7.9        
C           113.88      9.82        -11.34      
C           114.7       10.21       -10.38      
S           112.56      10.9        -11.52      
H           115.06      12.06       -9.27       
H           115.68      9.65        -10.16      
C           114.41      11.55       -9.91       
C           113.25      12.05       -10.42      
C           114.08      7.4         -14.42      
C           115.08      7.06        -13.53      
S           113.12      8.62        -13.73      
H           115.78      7.48        -11.5       
H           115.65      6.15        -13.61      
C           115.04      7.7         -12.25      
C           114.04      8.72        -12.24      
C           113.18      7.29        -18.28      
C           113.96      6.23        -17.91      
S           112.8       8.15        -16.79      
H           114.99      5.31        -16.18      
H           114.24      5.54        -18.69      
C           114.26      6.01        -16.57      
C           113.78      7.04        -15.79      
C           112.93      6.68        -22.98      
C           112.44      7.31        -21.85      
N           114.06      5.94        -22.64      
C           114.41      6.23        -21.28      
C           111.36      8.16        -21.34      
O           110.27      8.67        -21.79      
O           115.4       5.81        -20.79      
C           110.43      8.58        -19.07      
C           114.5       4.61        -23.05      
H           113.75539   3.87944     -22.73389   
H           115.46      4.3         -22.65      
H           114.65      4.62        -24.18      
H           110.7       9.03        -18.16      
H           109.59495   7.88648     -18.97093   
H           110.07      9.51        -19.64      
N           111.55      8.09        -19.87      
C           113.34      7.06        -20.73      
C           112.78      7.53        -19.58      
C           112.04      6.66        -26.75      
C           111.06      7.31        -26.06      
S           113.4       6.21        -25.77      
H           110.53      7.5         -23.87      
H           110.26      7.7         -26.62      
C           111.24      7.18        -24.66      
C           112.49      6.65        -24.35      
C           111.3       5.21        -30.32      
C           112.62      5.44        -30.19      
S           110.54      5.7         -28.88      
H           114.04      6.25        -28.72      
H           113.35      5.09        -30.84      
C           112.99      6.1         -29.01      
C           111.99      6.35        -28.14      
C           108.68      4.13        -32.85      
C           109.85      3.67        -33.26      
S           108.84      5.08        -31.46      
H           111.89      3.53        -32.44      
H           109.93      2.95        -34.05      
C           110.9       3.98        -32.39      
C           110.52      4.71        -31.35      
C           105.78      2.88        -36.52      
C           105.88      3.43        -35.24      
N           107.07      2.78        -37.04      
C           107.98      3.46        -36.14      
C           105.16      4.05        -34.15      
O           104.0       4.44        -33.99      
O           109.13      3.74        -36.42      
C           105.67      4.17        -31.76      
C           107.69      1.93        -38.02      
H           107.955     0.98855     -37.53881   
H           106.97      1.72        -38.84      
H           108.54      2.48        -38.38      
H           106.25      4.92        -31.23      
H           105.72012   3.18905     -31.28743   
H           104.69      4.64        -31.81      
N           106.15      4.18        -33.13      
C           107.26      3.6         -34.94      
C           107.45      4.03        -33.61      
C           102.76      1.31        -38.44      
C           102.43      1.65        -37.21      
S           104.31      1.84        -38.73      
H           103.28      2.48        -35.37      
H           101.5       1.32        -36.79      
C           103.38      2.35        -36.42      
C           104.51      2.45        -37.1       
C           100.51      -0.81       -40.65      
C           101.56      -0.4        -41.43      
S           100.63      -0.16       -39.08      
H           103.27      0.93        -41.31      
H           101.76      -0.86       -42.39      
C           102.36      0.57        -40.84      
C           102.02      0.73        -39.52      
C           97.5        -3.07       -40.79      
C           98.17       -3.19       -42.0       
S           98.31       -2.05       -39.72      
H           99.88       -2.49       -42.98      
H           97.81       -3.84       -42.81      
C           99.28       -2.36       -42.11      
C           99.43       -1.63       -40.99      
C           94.41       -6.69       -40.83      
C           94.81       -5.5        -40.39      
N           95.33       -7.06       -41.86      
C           96.35       -6.04       -42.02      
C           94.42       -4.47       -39.45      
O           93.49       -4.36       -38.75      
O           97.21       -6.03       -42.9       
C           95.16       -2.19       -38.84      
C           95.42       -8.22       -42.74      
H           96.36611    -8.73278    -42.56667   
H           95.21       -7.98       -43.8       
H           94.68       -8.99       -42.56      
H           95.42       -1.35       -39.44      
H           95.67377    -2.00949    -37.89578   
H           94.14       -2.12       -38.74      
N           95.41       -3.45       -39.51      
C           95.99       -5.03       -41.09      
C           96.4        -3.85       -40.44      
C           92.61       -9.65       -38.74      
C           92.7        -8.51       -38.01      
S           93.36       -9.36       -40.27      
H           93.31       -6.4        -38.23      
H           92.39       -8.45       -36.94      
C           93.25       -7.37       -38.67      
C           93.66       -7.62       -39.97      
C           92.4        -13.6       -38.32      
C           91.73       -13.05      -37.28      
S           92.98       -12.33      -39.32      
H           91.18       -11.12      -36.43      
H           91.29       -13.71      -36.58      
C           91.74       -11.63      -37.25      
C           92.33       -11.02      -38.37      
C           93.41       -17.45      -38.41      
C           92.82       -17.14      -39.63      
S           93.61       -15.98      -37.54      
H           91.83       -15.38      -40.58      
H           92.57       -17.87      -40.44      
C           92.43       -15.75      -39.77      
C           92.66       -15.01      -38.62      
H           48.75       36.38       32.39       
H           94.11       -18.29      -38.26      
