392

C           30.82       15.57       11.08       
C           30.03       16.58       11.62       
N           30.09       14.36       11.22       
C           28.76       14.66       11.71       
C           30.03       17.98       11.94       
O           30.79       18.91       11.86       
O           27.92       13.81       11.85       
C           28.21       19.55       12.52       
C           30.53       12.96       11.32       
H           30.48533    12.44633    10.35966    
H           30.04       12.42       12.13       
H           31.59       12.88       11.64       
H           27.21       19.62       12.99       
H           28.08443    20.10809    11.59217    
H           28.99       20.01       13.14       
N           28.73       18.18       12.41       
C           28.79       16.04       11.92       
C           28.0        16.97       12.37       
C           34.34       15.71       9.29        
C           34.28       16.74       10.13       
S           32.91       14.72       9.42        
H           32.78       17.55       11.47       
H           35.0        17.55       10.15       
C           33.03       16.76       10.83       
C           32.17       15.69       10.66       
C           37.36       15.06       6.86        
C           36.37       14.16       6.51        
S           36.71       16.16       8.05        
H           34.46       13.44       7.33        
H           36.56       13.29       5.76        
C           35.27       14.18       7.45        
C           35.29       15.23       8.37        
C           40.94       14.61       5.35        
C           40.8        15.94       5.67        
S           39.39       13.9        5.39        
H           39.53       17.24       6.94        
H           41.73       16.52       5.68        
C           39.6        16.35       6.3         
C           38.68       15.28       6.2         
C           44.94       14.89       2.68        
C           44.02       14.15       3.35        
N           44.46       16.22       2.69        
C           43.26       16.33       3.47        
C           43.71       12.78       3.65        
O           44.3        11.72       3.34        
O           42.53       17.34       3.49        
C           42.23       11.57       5.27        
C           45.09       17.53       2.41        
H           45.42438    17.99674    3.33652     
H           44.33       18.09       1.87        
H           45.86       17.42       1.66        
H           41.16       11.45       5.51        
H           42.69421    11.60571    6.25556     
H           42.46       10.74       4.6         
N           42.49       12.82       4.44        
C           42.96       15.0        3.87        
C           42.09       14.15       4.55        
C           48.52       14.14       1.35        
C           48.24       13.35       2.44        
S           47.15       15.14       1.03        
H           46.4        12.87       3.79        
H           48.91       12.62       2.77        
C           46.89       13.48       2.98        
C           46.24       14.58       2.41        
C           51.41       14.98       -1.13       
C           51.86       13.91       -0.33       
S           49.72       15.33       -0.76       
H           51.17       12.65       1.37        
H           52.9        13.46       -0.43       
C           50.9        13.47       0.69        
C           49.74       14.22       0.59        
C           52.87       17.36       -3.95       
C           53.64       16.23       -3.89       
S           51.55       17.19       -2.91       
H           53.52       14.29       -2.84       
H           54.59       16.2        -4.38       
C           53.14       15.22       -3.02       
C           52.11       15.7        -2.27       
C           56.03       20.38       -5.85       
C           54.72       20.07       -5.49       
N           56.9        19.51       -5.22       
C           56.11       18.6        -4.4        
C           53.39       20.43       -5.83       
O           52.89       21.26       -6.56       
O           56.57       17.68       -3.78       
C           51.25       19.18       -5.8        
C           58.23       19.9        -4.78       
H           58.24423    20.12059    -3.71265    
H           58.55       20.82       -5.22       
H           58.89       19.12       -5.11       
H           50.64       18.62       -5.1        
H           51.21531    18.71511    -6.78528    
H           50.73       20.12       -5.91       
N           52.55       19.41       -5.31       
C           54.7        18.9        -4.69       
C           53.33       18.56       -4.55       
C           57.6        22.62       -8.6        
C           56.43       23.12       -8.25       
S           57.91       21.23       -7.62       
H           54.83       22.8        -6.77       
H           55.98       23.93       -8.82       
C           55.73       22.47       -7.18       
C           56.47       21.43       -6.7        
C           60.46       22.79       -11.1       
C           59.45       23.38       -11.73      
S           60.09       22.37       -9.44       
H           57.25       23.61       -11.37      
H           59.5        23.66       -12.79      
C           58.26       23.36       -10.95      
C           58.48       22.89       -9.68       
C           64.3        22.74       -11.49      
C           63.77       22.36       -12.66      
S           63.02       23.03       -10.43      
H           61.79       21.92       -13.66      
H           64.4        22.32       -13.56      
C           62.36       22.23       -12.72      
C           61.76       22.58       -11.56      
C           68.75       21.03       -11.13      
C           67.83       21.93       -10.78      
N           68.22       20.28       -12.21      
C           66.89       20.77       -12.55      
C           67.71       23.09       -9.97       
O           68.45       23.72       -9.28       
O           66.23       20.36       -13.47      
C           65.85       24.62       -9.55       
C           68.77       19.04       -12.72      
H           68.02608    18.24649    -12.64915   
H           69.58       18.68       -12.17      
H           69.06       19.17       -13.77      
H           64.88       24.46       -9.04       
H           65.90772    25.47136    -10.2282    
H           66.44       24.91       -8.73       
N           66.35       23.39       -10.11      
C           66.6        21.71       -11.54      
C           65.66       22.53       -10.98      
C           72.3        20.73       -9.64       
C           71.46       20.99       -8.67       
S           71.43       20.3        -11.09      
H           69.31       21.34       -8.45       
H           71.75       21.29       -7.66       
C           70.1        21.07       -9.12       
C           69.92       20.73       -10.4       
C           76.13       20.92       -10.01      
C           75.77       21.84       -9.04       
S           74.77       20.04       -10.6       
H           73.94       22.57       -8.08       
H           76.48       22.54       -8.52       
C           74.38       21.89       -8.82       
C           73.72       20.96       -9.61       
C           79.81       19.65       -10.63      
C           79.18       19.85       -11.85      
S           78.77       20.29       -9.44       
H           77.13       20.64       -12.56      
H           79.69       19.65       -12.79      
C           77.82       20.44       -11.75      
C           77.38       20.59       -10.46      
C           83.38       17.86       -8.13       
C           82.94       18.53       -9.26       
N           82.31       17.31       -7.47       
C           81.11       17.75       -8.21       
C           83.4        19.33       -10.4       
O           84.5        19.84       -10.65      
O           80.01       17.47       -7.83       
C           82.34       20.77       -12.17      
C           82.28       16.48       -6.31       
H           81.43627    16.53672    -5.62225    
H           83.05       16.77       -5.66       
H           82.53       15.46       -6.5        
H           81.54       21.51       -12.08      
H           82.34686    20.29632    -13.15167   
H           83.24       21.37       -11.95      
N           82.23       19.83       -11.02      
C           81.55       18.5        -9.37       
C           81.14       19.34       -10.38      
C           87.05       16.78       -7.33       
C           86.9        16.92       -8.69       
S           85.53       17.2        -6.52       
H           85.18       17.32       -10.13      
H           87.69       16.76       -9.5        
C           85.57       17.23       -9.1        
C           84.7        17.37       -8.05       
C           90.55       15.86       -5.91       
C           89.68       15.7        -4.85       
S           89.81       16.49       -7.32       
H           87.47       15.84       -4.59       
H           89.94       15.27       -3.92       
C           88.28       16.01       -5.28       
C           88.2        16.54       -6.53       
C           94.24       15.56       -7.03       
C           94.19       15.15       -5.71       
S           92.66       16.07       -7.54       
H           92.61       14.89       -4.11       
H           95.01       14.65       -5.26       
C           92.86       15.18       -5.11       
C           91.96       15.66       -6.01       
C           98.85       15.39       -8.19       
C           97.6        15.61       -8.56       
N           98.81       15.28       -6.85       
C           97.53       15.42       -6.27       
C           96.81       15.5        -9.69       
O           97.07       15.48       -10.84      
O           97.28       15.3        -5.09       
C           94.41       15.48       -10.26      
C           100.02      14.91       -6.05       
H           100.08445   15.46137    -5.11195    
H           100.95      15.2        -6.58       
H           100.18      13.84       -5.97       
H           93.66       16.24       -10.03      
H           93.94579    14.49444    -10.29571   
H           94.9        15.75       -11.24      
N           95.43       15.47       -9.22       
C           96.71       15.51       -7.45       
C           95.42       15.56       -7.87       
C           101.69      14.29       -10.62      
C           101.0       15.31       -11.16      
S           101.14      14.04       -8.99       
H           99.23       16.57       -10.65      
H           101.15      15.65       -12.13      
C           99.98       15.78       -10.37      
C           99.99       15.27       -9.1        
C           104.88      12.33       -11.69      
C           104.23      12.72       -12.79      
S           103.98      12.88       -10.31      
H           102.54      13.96       -13.37      
H           104.57      12.37       -13.75      
C           103.05      13.45       -12.53      
C           102.72      13.58       -11.23      
C           108.28      10.57       -12.03      
C           107.83      10.3        -10.84      
S           107.22      11.63       -12.82      
H           105.99      10.75       -9.64       
H           108.38      9.65        -10.19      
C           106.58      10.91       -10.54      
C           106.05      11.53       -11.57      
C           111.03      8.59        -15.39      
C           111.0       9.19        -14.12      
N           109.75      8.62        -15.9       
C           108.86      9.26        -14.99      
C           111.74      9.51        -12.92      
O           112.94      9.41        -12.57      
O           107.74      9.61        -15.3       
C           111.33      10.87       -10.83      
C           109.17      7.72        -16.94      
H           108.42439   7.04083     -16.52659   
H           109.93      7.15        -17.43      
H           108.75      8.28        -17.74      
H           110.58      11.09       -10.11      
H           111.73449   11.86031    -11.03922   
H           111.98      10.18       -10.43      
N           110.79      10.19       -12.06      
C           109.63      9.56        -13.8       
C           109.52      10.11       -12.58      
C           114.05      7.53        -17.55      
C           114.38      7.63        -16.27      
S           112.37      7.93        -17.76      
H           113.38      8.06        -14.36      
H           115.41      7.4         -15.98      
C           113.34      8.0         -15.41      
C           112.17      8.08        -16.04      
C           115.45      6.12        -20.94      
C           116.41      5.95        -20.02      
S           114.05      6.88        -20.26      
H           116.75      6.36        -17.88      
H           117.37      5.41        -20.2       
C           116.05      6.49        -18.72      
C           114.82      7.05        -18.72      
C           116.32      5.48        -24.71      
C           115.14      6.15        -24.66      
S           116.91      5.3         -23.12      
H           113.86      6.98        -23.03      
H           114.56      6.43        -25.51      
C           114.73      6.44        -23.28      
C           115.52      5.95        -22.31      
C           116.76      4.33        -29.4       
C           117.24      4.31        -28.09      
N           115.57      5.04        -29.4       
C           115.42      5.59        -28.05      
C           118.29      3.74        -27.29      
O           119.25      3.04        -27.55      
O           114.48      6.3         -27.75      
C           119.01      3.73        -24.84      
C           114.38      4.84        -30.21      
H           113.67609   4.1432      -29.75495   
H           114.63      4.6         -31.24      
H           113.87      5.75        -30.2       
H           118.57      3.55        -23.85      
H           119.92124   4.31836     -24.73237   
H           119.31      2.75        -25.16      
N           118.13      4.23        -25.92      
C           116.43      5.02        -27.18      
C           116.92      4.95        -25.9       
C           118.51      2.21        -32.26      
C           117.65      3.04        -32.86      
S           118.62      2.49        -30.56      
H           116.37      4.79        -32.27      
H           117.37      3.04        -33.92      
C           117.08      4.0         -31.96      
C           117.34      3.69        -30.6       
C           120.46      -0.29       -34.39      
C           121.28      0.17        -33.42      
S           118.83      0.48        -34.23      
H           121.18      1.66        -31.74      
H           122.32      -0.06       -33.3       
C           120.65      1.07        -32.51      
C           119.36      1.34        -32.83      
C           120.67      -2.77       -37.44      
C           121.92      -2.63       -36.86      
S           119.63      -1.72       -36.65      
H           122.88      -1.54       -35.34      
H           122.8       -3.06       -37.28      
C           121.91      -1.87       -35.71      
C           120.72      -1.3        -35.4       
C           121.44      -5.15       -41.56      
C           120.56      -4.65       -40.68      
N           122.69      -4.79       -41.16      
C           122.64      -4.02       -39.93      
C           119.11      -4.47       -40.44      
O           118.15      -4.75       -41.12      
O           123.62      -3.53       -39.42      
C           117.78      -3.82       -38.42      
C           123.95      -5.17       -41.78      
H           124.48387   -5.87949    -41.14778   
H           123.81      -5.61       -42.71      
H           124.47      -4.2        -41.9       
H           117.69      -2.79       -38.14      
H           117.73789   -4.46563    -37.54279   
H           116.95      -4.07       -39.14      
N           119.12      -3.9        -39.13      
C           121.24      -3.95       -39.63      
C           120.35      -3.42       -38.68      
C           120.43      -6.95       -44.9       
C           119.57      -5.92       -44.75      
S           121.72      -6.89       -43.79      
H           119.47      -4.32       -43.18      
H           118.82      -5.68       -45.42      
C           119.92      -5.18       -43.57      
C           121.02      -5.6        -42.88      
C           120.25      -9.46       -47.92      
C           121.03      -10.08      -46.88      
S           119.8       -7.86       -47.49      
H           121.5       -9.39       -44.76      
H           121.55      -11.04      -47.0       
C           121.02      -9.24       -45.74      
C           120.41      -7.99       -45.89      
C           120.34      -11.19      -51.49      
C           119.84      -9.89       -51.63      
S           120.43      -11.54      -49.79      
H           119.62      -8.09       -50.57      
H           119.61      -9.46       -52.68      
C           119.88      -9.13       -50.46      
C           120.17      -9.88       -49.35      
C           120.44      -12.71      -56.11      
C           120.75      -12.92      -54.85      
N           119.65      -11.57      -56.22      
C           119.57      -10.97      -54.94      
C           121.27      -13.98      -53.97      
O           121.71      -15.12      -54.2       
O           118.88      -10.02      -54.78      
C           122.04      -13.93      -51.52      
C           119.07      -10.8       -57.38      
H           119.6109    -9.86055    -57.49387   
H           118.08      -10.55      -57.02      
H           118.98      -11.34      -58.34      
H           121.44      -13.88      -50.66      
H           123.04839   -13.55185   -51.35193   
H           122.03      -14.98      -51.8       
N           121.33      -13.31      -52.62      
C           120.31      -11.83      -54.01      
C           120.57      -12.09      -52.64      
C           120.91      -15.06      -59.21      
C           121.9       -15.31      -58.31      
S           119.91      -13.87      -58.56      
H           122.61      -14.55      -56.33      
H           122.67      -16.02      -58.47      
C           121.85      -14.49      -57.11      
C           120.84      -13.56      -57.22      
C           120.37      -17.11      -62.44      
C           119.71      -15.95      -62.61      
S           121.06      -17.29      -60.89      
H           119.53      -14.06      -61.41      
H           119.08      -15.69      -63.46      
C           119.96      -15.07      -61.5       
C           120.68      -15.61      -60.49      
C           120.49      -20.56      -64.3       
C           119.96      -19.62      -65.17      
S           120.96      -19.75      -62.84      
H           119.59      -17.43      -65.02      
H           119.55      -19.92      -66.14      
C           119.84      -18.33      -64.57      
C           120.36      -18.24      -63.31      
H           27.1        16.75       12.84       
H           120.67      -21.63      -64.44      
