392

C           21.89       11.58       27.51       
C           20.62       11.37       27.13       
N           22.56       12.14       26.46       
C           21.78       12.29       25.27       
C           19.35       10.84       27.52       
O           19.01       10.26       28.48       
O           22.23       12.66       24.23       
C           17.02       11.31       26.78       
C           23.59       13.2        26.59       
H           23.11166    14.17097    26.46149    
H           24.26       12.95       25.76       
H           24.19       13.1        27.51       
H           16.41       10.98       25.96       
H           16.7389     12.30468    27.12597    
H           16.75       10.51       27.49       
N           18.42       11.22       26.44       
C           20.54       11.72       25.79       
C           19.21       11.7        25.4        
C           23.9        10.39       30.61       
C           22.62       10.43       31.08       
S           24.18       10.97       28.98       
H           20.76       11.02       30.06       
H           22.27       10.0        32.05       
C           21.84       10.95       30.0        
C           22.48       11.34       28.83       
C           27.37       9.49        32.14       
C           26.42       9.45        33.13       
S           26.71       9.86        30.58       
H           24.28       9.68        33.32       
H           26.68       9.2         34.2        
C           25.13       9.75        32.64       
C           25.12       9.99        31.27       
C           30.9        9.14        33.59       
C           31.04       8.88        32.23       
S           29.28       9.51        33.97       
H           29.64       9.01        30.43       
H           31.99       8.59        31.8        
C           29.77       9.08        31.54       
C           28.74       9.34        32.38       
C           34.64       6.9         35.41       
C           33.67       7.82        35.51       
N           34.83       6.65        34.09       
C           33.75       7.23        33.35       
C           33.01       8.61        36.59       
O           33.19       8.81        37.7        
O           33.57       7.02        32.16       
C           31.56       10.67       36.35       
C           35.97       6.18        33.35       
H           36.68815    6.96278     33.10583    
H           35.59       5.66        32.45       
H           36.5        5.45        33.89       
H           30.5        10.66       36.37       
H           31.88234    11.51357    35.73961    
H           32.06       10.94       37.37       
N           32.04       9.35        35.83       
C           33.03       8.01        34.31       
C           31.94       8.77        34.55       
C           36.92       6.44        38.54       
C           37.24       5.5         37.61       
S           35.8        7.49        37.85       
H           36.38       4.82        35.71       
H           38.16       4.87        37.73       
C           36.37       5.51        36.48       
C           35.44       6.47        36.56       
C           39.38       7.36        41.34       
C           38.21       7.97        41.64       
S           39.25       6.3         39.94       
H           36.18       8.02        40.59       
H           38.07       8.71        42.43       
C           37.19       7.6         40.67       
C           37.59       6.76        39.69       
C           43.23       7.82        42.11       
C           42.52       8.12        43.23       
S           42.08       7.16        40.93       
H           40.4        8.18        43.9        
H           42.98       8.51        44.09       
C           41.11       7.91        43.12       
C           40.69       7.5         41.9        
C           47.63       9.45        43.11       
C           46.84       8.8         42.2        
N           46.76       10.02       44.06       
C           45.37       9.78        43.8        
C           46.81       8.04        40.97       
O           47.69       7.68        40.25       
O           44.45       10.3        44.45       
C           45.21       6.37        40.03       
C           47.06       10.57       45.41       
H           46.63703    11.57102    45.49459    
H           48.15       10.54       45.63       
H           46.65       9.88        46.13       
H           44.28       6.37        39.48       
H           45.27536    5.39683     40.51659    
H           45.89       6.51        39.19       
N           45.41       7.5         40.94       
C           45.46       8.85        42.69       
C           44.6        8.09        41.9        
C           51.6        9.62        43.63       
C           51.33       8.61        42.73       
S           50.14       10.38       44.14       
H           49.52       7.7         41.97       
H           52.08       7.97        42.25       
C           49.94       8.51        42.56       
C           49.07       9.36        43.21       
C           55.19       11.03       43.64       
C           54.55       11.39       44.77       
S           54.07       10.2        42.63       
H           52.66       10.95       45.82       
H           55.04       12.04       45.45       
C           53.31       10.78       44.97       
C           52.93       10.09       43.89       
C           58.73       12.47       43.06       
C           58.2        12.17       41.83       
S           57.65       11.87       44.28       
H           56.4        11.21       41.07       
H           58.78       12.36       40.94       
C           56.95       11.54       41.89       
C           56.43       11.46       43.15       
C           63.47       12.83       42.22       
C           62.4        13.07       43.07       
N           63.1        11.95       41.27       
C           61.68       11.6        41.41       
C           62.02       13.7        44.33       
O           62.62       14.44       45.06       
O           61.03       10.94       40.54       
C           59.82       14.26       45.3        
C           64.02       11.05       40.52       
H           63.68816    10.01212    40.54824    
H           64.96       11.09       41.04       
H           64.22       11.44       39.56       
H           59.01       13.73       45.76       
H           59.33455    15.16758    44.94119    
H           60.43       14.57       46.06       
N           60.6        13.57       44.38       
C           61.25       12.35       42.58       
C           60.11       12.72       43.37       
C           67.02       14.46       42.38       
C           66.58       14.35       43.65       
S           65.86       13.84       41.25       
H           64.76       13.62       44.7        
H           67.14       14.66       44.53       
C           65.27       13.79       43.75       
C           64.79       13.32       42.51       
C           70.25       16.59       41.85       
C           69.93       16.07       40.66       
S           69.2        15.97       43.05       
H           68.39       14.74       39.73       
H           70.41       16.24       39.77       
C           68.78       15.25       40.65       
C           68.26       15.08       41.91       
C           73.68       18.3        42.21       
C           73.11       18.23       43.5        
S           72.6        17.61       41.07       
H           71.22       17.49       44.26       
H           73.55       18.53       44.44       
C           71.85       17.6        43.45       
C           71.39       17.3        42.22       
C           77.92       20.43       43.25       
C           77.13       19.66       42.38       
N           76.98       20.93       44.24       
C           75.65       20.38       44.01       
C           77.18       19.0        41.06       
O           78.04       18.83       40.2        
O           74.63       20.79       44.49       
C           75.5        17.62       39.75       
C           77.17       21.74       45.48       
H           77.17       21.11733    46.37464    
H           76.47       22.55       45.46       
H           78.11       22.26       45.46       
H           74.58       17.93       39.32       
H           75.57466    16.55447    39.96718    
H           76.22       17.83       38.93       
N           75.83       18.48       40.9        
C           75.77       19.51       42.86       
C           75.0        18.8        41.99       
C           81.75       21.17       43.08       
C           81.38       20.74       41.88       
S           80.43       21.22       44.21       
H           79.43       20.35       40.87       
H           81.98       20.51       41.1        
C           79.96       20.61       41.8        
C           79.32       20.76       42.97       
C           85.56       21.67       43.66       
C           84.92       22.29       44.73       
S           84.46       20.82       42.62       
H           82.81       22.52       45.35       
H           85.42       22.86       45.53       
C           83.46       22.15       44.64       
C           83.08       21.55       43.52       
C           89.21       21.5        42.33       
C           89.23       21.76       43.65       
S           87.55       21.21       41.86       
H           87.79       21.83       45.34       
H           90.12       21.88       44.23       
C           87.94       21.77       44.28       
C           86.95       21.67       43.41       
C           93.84       22.0        40.85       
C           92.52       21.89       40.51       
N           93.88       22.15       42.17       
C           92.58       22.09       42.84       
C           91.56       21.66       39.45       
O           91.73       21.52       38.23       
O           92.46       21.89       44.08       
C           89.32       20.83       39.22       
C           95.09       22.14       43.03       
H           95.0972     22.89619    43.815      
H           95.99       22.38       42.42       
H           95.19       21.14       43.61       
H           88.29       21.17       39.46       
H           89.39017    19.74235    39.20597    
H           89.52       21.07       38.14       
N           90.32       21.42       40.09       
C           91.67       21.93       41.75       
C           90.34       21.65       41.44       
C           96.67       21.74       38.15       
C           95.58       22.45       37.65       
S           96.34       21.34       39.81       
H           93.64       23.15       38.61       
H           95.52       22.77       36.6        
C           94.6        22.61       38.7        
C           94.86       22.2        39.93       
C           99.55       21.38       35.74       
C           99.82       20.47       36.78       
S           98.01       22.05       35.79       
H           98.65       19.95       38.61       
H           100.69      19.81       36.76       
C           98.77       20.5        37.73       
C           97.81       21.41       37.42       
C           102.49      21.83       33.11       
C           101.36      22.41       32.65       
S           102.19      21.32       34.78       
H           99.2        22.53       33.11       
H           101.27      22.73       31.56       
C           100.21      22.32       33.52       
C           100.5       21.75       34.73       
C           104.67      20.25       29.17       
C           104.72      20.66       30.44       
N           103.35      20.32       28.77       
C           102.53      20.93       29.81       
C           105.63      20.69       31.58       
O           106.82      20.4        31.67       
O           101.33      21.21       29.75       
C           105.57      21.59       33.95       
C           102.74      20.22       27.47       
H           101.8494    19.59454    27.40881    
H           103.44      19.86       26.77       
H           102.5       21.19       27.07       
H           105.42      20.89       34.79       
H           105.35021   22.58592    34.33463    
H           106.65      21.65       33.75       
N           104.88      21.14       32.71       
C           103.44      21.0        30.91       
C           103.54      21.26       32.26       
C           107.17      18.28       27.15       
C           107.89      19.12       27.95       
S           105.45      18.5        27.27       
H           107.28      20.63       29.4        
H           108.99      19.12       28.01       
C           107.04      19.91       28.71       
C           105.74      19.71       28.46       
C           109.01      15.96       24.68       
C           107.74      15.6        24.69       
S           109.25      17.33       25.66       
H           105.87      16.27       25.69       
H           107.31      14.79       24.08       
C           106.94      16.37       25.55       
C           107.66      17.36       26.17       
C           112.23      14.36       23.1        
C           111.23      14.25       22.21       
S           111.7       15.21       24.52       
H           109.07      14.29       22.23       
H           111.4       13.66       21.35       
C           109.96      14.62       22.71       
C           110.09      15.37       23.92       
C           115.72      11.54       21.16       
C           115.4       12.63       22.0        
N           114.5       11.0        20.69       
C           113.39      11.77       21.28       
C           115.89      13.73       22.78       
O           117.01      14.01       23.08       
O           112.25      11.46       20.98       
C           114.97      15.82       23.7        
C           114.26      9.9         19.7        
H           113.79982   10.25952    18.77963    
H           113.73      9.09        20.16       
H           115.17      9.33        19.5        
H           114.27      16.09       24.51       
H           114.93345   16.52171    22.86672    
H           115.93      15.77       24.22       
N           114.73      14.42       23.26       
C           113.97      12.75       22.09       
C           113.59      13.77       22.96       
C           119.16      10.46       19.48       
C           119.44      11.23       20.59       
S           117.49      10.11       19.48       
H           118.25      12.22       22.14       
H           120.4       11.61       20.91       
C           118.24      11.65       21.27       
C           117.08      11.15       20.79       
C           120.94      7.85        17.26       
C           121.93      8.48        18.0        
S           119.41      8.68        17.4        
H           121.99      10.1        19.44       
H           122.97      8.19        18.03       
C           121.37      9.52        18.75       
C           120.05      9.71        18.64       
C           120.4       4.41        15.34       
C           121.77      4.64        15.47       
S           119.54      5.86        15.91       
H           123.07      6.12        16.41       
H           122.52      3.93        15.17       
C           122.06      5.94        16.1        
C           120.98      6.68        16.42       
C           120.12      0.69        12.3        
C           119.45      1.45        13.21       
N           121.49      1.0         12.36       
C           121.65      2.19        13.16       
C           118.18      1.75        13.87       
O           117.1       1.19        13.89       
O           122.67      2.85        13.19       
C           117.49      3.16        15.83       
C           122.55      0.44        11.5        
H           123.50686   0.37525     12.018      
H           122.27      -0.48       11.07       
H           122.66      1.05        10.59       
H           117.52      4.21        16.1        
H           117.48303   2.42854     16.63809    
H           116.51      3.22        15.3        
N           118.49      2.83        14.83       
C           120.38      2.43        13.76       
C           119.79      3.32        14.59       
C           118.65      -2.12       9.99        
C           118.07      -2.11       11.27       
S           119.89      -0.9        9.99        
H           118.25      -0.95       13.2        
H           117.3       -2.82       11.61       
C           118.56      -1.14       12.21       
C           119.59      -0.4        11.65       
C           118.95      -4.51       7.06        
C           117.82      -4.84       7.69        
S           119.56      -2.97       7.63        
H           116.91      -4.3        9.66        
H           117.32      -5.82       7.49        
C           117.57      -4.02       8.86        
C           118.48      -3.02       8.94        
C           120.52      -6.58       4.07        
C           120.89      -5.21       3.95        
S           119.44      -6.74       5.43        
H           120.49      -3.35       5.01        
H           121.57      -4.87       3.16        
C           120.34      -4.41       4.93        
C           119.5       -5.05       5.85        
C           122.74      -8.55       0.21        
C           122.12      -8.75       1.43        
N           122.93      -7.19       -0.03       
C           122.19      -6.51       1.01        
C           121.6       -9.73       2.33        
O           121.58      -10.91      2.31        
O           122.02      -5.33       0.92        
C           120.51      -9.72       4.7         
C           124.02      -6.58       -0.8        
H           124.7263    -6.0703     -0.14467    
H           123.62      -6.12       -1.68       
H           124.71      -7.22       -1.24       
H           119.57      -9.28       5.17        
H           121.30342   -9.84866    5.43623     
H           120.16      -10.68      4.47        
N           120.92      -9.0        3.42        
C           121.74      -7.5        1.99        
C           120.98      -7.66       3.15        
C           123.5       -11.1       -2.9        
C           123.65      -11.78      -1.69       
S           123.3       -9.4        -2.45       
H           123.37      -11.45      0.53        
H           123.84      -12.79      -1.63       
C           123.42      -10.98      -0.46       
C           123.17      -9.63       -0.72       
C           123.22      -12.06      -6.74       
C           124.3       -12.73      -6.2        
S           122.55      -11.11      -5.43       
H           125.29      -13.09      -4.27       
H           124.94      -13.29      -6.78       
C           124.48      -12.62      -4.82       
C           123.69      -11.63      -4.22       
C           122.36      -12.43      -10.58      
C           121.33      -11.7       -10.06      
S           123.65      -12.52      -9.49       
H           120.72      -11.0       -8.05       
H           120.5       -11.46      -10.71      
C           121.46      -11.58      -8.64       
C           122.7       -11.96      -8.11       
H           18.87       11.93       24.44       
H           122.41      -12.77      -11.61      
