392

C           35.26       25.54       2.08        
C           33.96       25.0        2.07        
N           35.65       25.63       3.43        
C           34.73       24.89       4.25        
C           32.82       24.76       1.2         
O           32.47       25.12       0.09        
O           34.9        24.74       5.5         
C           30.47       23.81       1.67        
C           36.76       26.36       4.09        
H           36.36912    27.10686    4.78102     
H           37.35       26.84       3.28        
H           37.39       25.63       4.54        
H           29.69       24.22       2.32        
H           30.36885    22.72624    1.6122      
H           30.35       24.22       0.66        
N           31.79       24.22       2.12        
C           33.56       24.65       3.37        
C           32.3        24.14       3.39        
C           37.43       27.36       -0.7        
C           36.13       27.51       -1.03       
S           37.66       26.44       0.76        
H           34.22       27.0        -0.0        
H           35.79       28.01       -1.96       
C           35.3        26.9        -0.03       
C           35.97       26.3        1.06        
C           40.69       28.22       -2.71       
C           39.82       27.67       -3.6        
S           40.08       28.22       -1.12       
H           37.58       27.18       -3.49       
H           40.05       27.67       -4.63       
C           38.5        27.48       -2.97       
C           38.56       27.56       -1.6        
C           44.25       30.03       -2.45       
C           44.06       29.64       -3.76       
S           42.85       29.51       -1.48       
H           42.49       28.64       -4.91       
H           44.83       29.8        -4.45       
C           42.78       29.02       -3.93       
C           41.97       28.9        -2.88       
C           48.78       31.75       -2.2        
C           47.59       31.47       -1.58       
N           48.65       31.3        -3.48       
C           47.29       30.82       -3.79       
C           46.97       31.47       -0.24       
O           47.35       31.76       0.82        
O           47.0        30.25       -4.88       
C           44.68       30.83       0.57        
C           49.43       31.7        -4.55       
H           48.94773    32.533      -5.06149    
H           49.52       30.89       -5.24       
H           50.45       31.94       -4.2        
H           44.08       29.94       0.55        
H           44.18497    31.75549    0.86415     
H           45.25       30.48       1.44        
N           45.62       30.99       -0.52       
C           46.57       30.93       -2.49       
C           45.41       30.64       -1.85       
C           52.22       32.63       -0.32       
C           51.15       33.14       0.31        
S           51.62       31.87       -1.77       
H           49.03       33.47       0.15        
H           51.31       33.63       1.19        
C           49.9        32.98       -0.31       
C           49.92       32.41       -1.56       
C           56.04       32.04       0.41        
C           55.38       32.14       1.62        
S           54.84       32.07       -0.89       
H           53.36       32.3        2.36        
H           55.76       31.92       2.6         
C           54.0        32.36       1.46        
C           53.54       32.48       0.17        
C           59.52       30.18       -0.11       
C           59.25       30.95       -1.16       
S           58.06       30.28       0.88        
H           57.82       32.39       -1.85       
H           59.9        31.0        -2.01       
C           58.07       31.7        -1.02       
C           57.37       31.59       0.04        
C           62.6        27.03       -1.87       
C           61.97       27.56       -0.82       
N           62.51       27.86       -2.93       
C           61.47       28.79       -2.6        
C           61.58       27.28       0.58        
O           61.9        26.36       1.31        
O           60.96       29.53       -3.47       
C           60.08       28.23       2.36        
C           63.68       28.23       -3.83       
H           63.89698    29.29454    -3.74185    
H           63.53       27.98       -4.9        
H           64.62       27.77       -3.44       
H           58.97       28.38       2.28        
H           60.57665    28.9435     3.01754     
H           60.23       27.24       2.65        
N           60.73       28.32       1.03        
C           61.19       28.68       -1.17       
C           60.45       29.17       -0.1        
C           65.38       24.1        -2.3        
C           65.14       24.38       -0.99       
S           64.14       25.0        -3.19       
H           64.06       25.84       0.25        
H           65.66       23.89       -0.14       
C           64.21       25.41       -0.68       
C           63.61       25.94       -1.82       
C           67.8        21.77       -4.35       
C           68.01       21.54       -3.02       
S           66.5        22.9        -4.55       
H           67.19       22.18       -0.96       
H           68.7        20.78       -2.76       
C           67.07       22.13       -2.1        
C           66.31       23.11       -2.8        
C           70.27       20.43       -7.19       
C           69.06       20.79       -7.73       
S           70.06       20.62       -5.47       
H           67.05       21.7        -7.16       
H           68.82       20.71       -8.77       
C           68.06       21.38       -6.84       
C           68.43       21.28       -5.53       
C           72.73       18.95       -10.92      
C           72.79       19.26       -9.56       
N           71.32       18.81       -11.27      
C           70.56       19.05       -10.14      
C           73.65       19.69       -8.5        
O           74.85       19.72       -8.43       
O           69.34       18.88       -10.13      
C           73.42       20.41       -6.13       
C           70.75       18.95       -12.56      
H           70.52164    19.98108    -12.82988   
H           69.92       18.22       -12.71      
H           71.43       18.57       -13.31      
H           72.7        20.26       -5.32       
H           73.78202    21.43813    -6.13       
H           74.21       19.7        -5.99       
N           72.78       20.03       -7.45       
C           71.5        19.53       -9.13       
C           71.45       20.04       -7.86       
C           75.89       19.48       -13.32      
C           76.17       18.66       -12.27      
S           74.25       19.99       -13.12      
H           75.1        17.96       -10.43      
H           77.19       18.3        -11.98      
C           75.1        18.51       -11.39      
C           73.89       18.97       -11.78      
C           78.64       20.19       -16.07      
C           77.63       21.1        -16.26      
S           78.18       19.15       -14.77      
H           75.63       21.7        -15.32      
H           77.65       21.92       -17.02      
C           76.5        21.03       -15.36      
C           76.69       19.99       -14.38      
C           82.47       19.6        -16.96      
C           82.03       20.81       -17.42      
S           81.07       18.78       -16.22      
H           80.15       21.96       -17.56      
H           82.68       21.51       -17.89      
C           80.59       21.05       -17.33      
C           80.02       20.09       -16.57      
C           87.26       20.23       -17.24      
C           86.17       19.46       -17.05      
N           86.83       21.52       -17.15      
C           85.37       21.57       -16.97      
C           85.84       18.04       -16.84      
O           86.49       17.05       -17.08      
O           84.7        22.59       -16.83      
C           83.71       16.8        -16.51      
C           87.63       22.72       -16.81      
H           87.47767    22.88684    -15.74367   
H           87.28       23.49       -17.46      
H           88.75       22.65       -17.0       
H           82.88       16.73       -17.16      
H           83.43339    16.63258    -15.46906   
H           84.34       15.99       -16.89      
N           84.4        18.01       -16.79      
C           84.94       20.2        -17.05      
C           83.86       19.31       -16.91      
C           91.08       19.29       -17.6       
C           90.49       18.33       -16.76      
S           89.92       20.42       -18.14      
H           88.4        18.02       -16.09      
H           91.0        17.39       -16.43      
C           89.1        18.6        -16.63      
C           88.63       19.78       -17.19      
C           94.96       19.59       -17.85      
C           94.45       19.81       -19.11      
S           93.64       19.24       -16.75      
H           92.39       20.01       -20.01      
H           95.01       20.16       -19.95      
C           93.03       19.74       -19.18      
C           92.49       19.28       -18.03      
C           98.59       19.33       -16.42      
C           98.62       19.02       -17.75      
S           96.95       19.62       -15.94      
H           97.2        18.87       -19.41      
H           99.54       18.7        -18.17      
C           97.33       19.07       -18.34      
C           96.36       19.5        -17.54      
C           102.9       17.85       -14.97      
C           101.79      18.65       -14.8       
N           102.7       17.19       -16.16      
C           101.44      17.46       -16.71      
C           101.24      19.64       -13.9       
O           101.81      20.36       -13.03      
O           100.95      16.86       -17.66      
C           99.35       21.32       -14.19      
C           103.76      16.7        -17.12      
H           103.72534   17.23379    -18.06972   
H           103.61      15.55       -17.2       
H           104.78      16.68       -16.75      
H           98.27       21.21       -13.97      
H           99.47677    22.03837    -14.99992   
H           99.68       21.66       -13.25      
N           99.99       20.03       -14.49      
C           100.85      18.44       -15.82      
C           99.76       19.21       -15.58      
C           105.75      16.48       -12.69      
C           105.36      17.63       -12.18      
S           104.73      16.05       -14.07      
H           103.93      19.2        -12.77      
H           105.74      18.03       -11.22      
C           104.27      18.21       -12.96      
C           103.93      17.55       -14.04      
C           108.82      14.02       -12.36      
C           108.57      14.64       -11.19      
S           107.69      14.69       -13.5       
H           107.26      16.16       -10.24      
H           109.28      14.46       -10.33      
C           107.5       15.54       -11.1       
C           106.78      15.57       -12.3       
C           111.72      11.39       -12.92      
C           110.8       11.18       -13.88      
S           111.32      12.73       -11.9       
H           108.8       12.17       -14.46      
H           110.84      10.38       -14.65      
C           109.67      12.14       -13.78      
C           109.81      13.07       -12.77      
C           114.43      7.46        -13.03      
C           114.26      8.77        -12.64      
N           113.17      7.01        -13.47      
C           112.34      8.14        -13.69      
C           114.97      9.94        -12.01      
O           116.11      10.09       -11.68      
O           111.28      8.02        -14.19      
C           114.64      12.37       -12.14      
C           112.66      5.69        -13.62      
H           111.90496   5.49933     -12.85733   
H           113.44      4.96        -13.42      
H           112.22      5.49        -14.59      
H           114.04      13.02       -11.47      
H           114.70403   12.85377    -13.11466   
H           115.62      12.34       -11.65      
N           114.06      10.99       -12.21      
C           113.0       9.23        -13.0       
C           112.82      10.56       -12.61      
C           117.52      5.1         -12.84      
C           117.51      5.95        -11.81      
S           116.1       5.36        -13.82      
H           116.33      7.67        -11.02      
H           118.34      5.99        -11.09      
C           116.43      6.81        -11.71      
C           115.53      6.59        -12.73      
C           119.78      2.82        -14.83      
C           120.49      3.24        -13.75      
S           118.13      3.35        -14.72      
H           120.15      4.58        -12.03      
H           121.55      2.98        -13.48      
C           119.77      4.13        -12.96      
C           118.55      4.3         -13.36      
C           121.21      -0.02       -17.24      
C           120.3       0.74        -17.92      
S           121.14      0.47        -15.55      
H           119.0       2.45        -17.63      
H           120.03      0.49        -18.93      
C           119.71      1.81        -17.16      
C           120.11      1.84        -15.83      
C           121.98      -3.7        -20.24      
C           122.39      -3.06       -19.05      
N           120.67      -3.38       -20.49      
C           120.26      -2.28       -19.67      
C           123.46      -2.91       -18.08      
O           124.54      -3.46       -17.89      
O           119.23      -1.65       -19.88      
C           123.81      -1.13       -16.32      
C           119.57      -4.24       -20.89      
H           118.87542   -4.39917    -20.06518   
H           119.94      -5.23       -21.23      
H           118.98      -3.82       -21.73      
H           123.32      -0.92       -15.39      
H           124.53179   -0.38739    -16.66007   
H           124.45      -1.91       -15.94      
N           123.02      -1.75       -17.3       
C           121.36      -2.1        -18.75      
C           121.78      -1.26       -17.74      
C           123.38      -6.95       -22.06      
C           123.94      -6.88       -20.85      
S           122.32      -5.59       -22.27      
H           124.01      -5.54       -19.1       
H           124.72      -7.56       -20.55      
C           123.59      -5.72       -20.08      
C           122.63      -4.91       -20.7       
C           123.61      -8.67       -25.6       
C           124.51      -9.23       -24.71      
S           122.9       -7.42       -24.63      
H           125.13      -9.23       -22.56      
H           125.15      -10.15      -24.89      
C           124.51      -8.8        -23.3       
C           123.76      -7.72       -23.17      
C           122.4       -8.69       -29.35      
C           123.03      -9.87       -29.09      
S           122.54      -7.62       -27.94      
H           124.01      -10.9       -27.3       
H           123.16      -10.67      -29.87      
C           123.54      -10.03      -27.74      
C           123.3       -8.91       -27.0       
C           121.78      -8.8        -34.14      
C           121.45      -8.26       -32.94      
N           122.8       -9.69       -33.87      
C           123.18      -9.7        -32.46      
C           120.56      -7.33       -32.26      
O           119.7       -6.5        -32.69      
O           124.09      -10.37      -32.04      
C           120.28      -6.18       -30.05      
C           123.78      -10.33      -34.75      
H           123.65696   -11.39391   -34.95265   
H           123.93      -9.77       -35.62      
H           124.85      -10.23      -34.36      
H           120.98      -5.82       -29.29      
H           119.30336   -6.51505    -29.70069   
H           120.1       -5.33       -30.72      
N           120.98      -7.26       -30.91      
C           122.27      -8.78       -31.88      
C           121.96      -8.22       -30.63      
C           120.26      -8.48       -37.72      
C           119.36      -7.98       -36.85      
S           121.58      -9.17       -36.91      
H           119.51      -7.29       -34.77      
H           118.48      -7.49       -37.16      
C           119.89      -7.98       -35.5       
C           121.02      -8.68       -35.35      
C           119.78      -9.33       -41.45      
C           121.13      -9.38       -41.18      
S           118.86      -8.86       -40.08      
H           122.46      -8.95       -39.46      
H           121.88      -9.83       -41.93      
C           121.43      -8.96       -39.87      
C           120.3       -8.69       -39.09      
C           118.45      -10.69      -44.89      
C           117.52      -9.75       -44.42      
S           119.65      -11.05      -43.7       
H           117.61      -8.25       -42.76      
H           116.64      -9.49       -44.91      
C           117.96      -9.18       -43.2       
C           119.12      -9.71       -42.68      
C           115.98      -12.5       -48.7       
C           117.21      -12.44      -48.04      
N           115.0       -12.13      -47.87      
C           115.5       -11.61      -46.55      
C           118.7       -12.62      -48.15      
O           119.38      -13.04      -49.05      
O           114.88      -11.11      -45.64      
C           120.59      -11.52      -46.98      
C           113.66      -12.8       -47.77      
H           113.55791   -13.6167    -47.05539   
H           113.39      -13.32      -48.71      
H           112.9       -12.14      -47.57      
H           120.99      -11.59      -46.0       
H           120.67967   -10.49223   -47.33179   
H           121.19      -12.23      -47.59      
N           119.18      -12.0       -46.96      
C           117.0       -11.86      -46.73      
C           118.19      -11.55      -46.07      
C           115.92      -13.5       -52.52      
C           114.71      -13.04      -52.2       
S           116.84      -13.55      -51.07      
H           113.68      -12.18      -50.33      
H           113.92      -12.97      -52.97      
C           114.57      -12.66      -50.79      
C           115.67      -12.86      -50.07      
C           117.74      -15.32      -55.45      
C           116.48      -15.04      -55.86      
S           118.0       -14.73      -53.83      
H           114.65      -14.21      -55.03      
H           116.04      -15.46      -56.73      
C           115.71      -14.37      -54.87      
C           116.42      -13.99      -53.74      
C           120.13      -17.82      -57.49      
C           120.88      -17.12      -56.63      
S           118.54      -17.22      -57.45      
H           120.56      -15.42      -55.16      
H           121.96      -17.37      -56.56      
C           120.13      -16.1       -55.92      
C           118.82      -16.06      -56.22      
H           31.85       23.75       4.33        
H           120.28      -18.88      -57.67      
