392

C           29.13       40.15       15.84       
C           28.56       40.09       17.09       
N           28.11       40.27       14.87       
C           26.83       40.35       15.48       
C           28.82       39.81       18.49       
O           29.86       39.71       19.15       
O           25.74       40.44       14.98       
C           27.23       39.17       20.43       
C           28.17       40.79       13.52       
H           28.3033     41.87118    13.55703    
H           27.33       40.37       12.92       
H           29.01       40.31       13.01       
H           26.71       38.23       20.33       
H           26.67063    39.82008    21.10276    
H           28.26       38.89       20.78       
N           27.47       39.74       19.09       
C           27.14       40.12       16.89       
C           26.54       39.97       18.14       
C           32.84       39.26       14.55       
C           32.84       39.63       15.91       
S           31.2        39.64       14.06       
H           31.53       40.2        17.56       
H           33.73       39.67       16.55       
C           31.58       40.03       16.48       
C           30.5        40.01       15.63       
C           35.45       39.12       11.72       
C           35.82       38.23       12.74       
S           34.04       40.02       12.24       
H           35.0        37.5        14.7        
H           36.59       37.59       12.53       
C           34.98       38.24       13.85       
C           33.92       39.1        13.68       
C           37.63       39.22       8.46        
C           36.99       40.37       8.62        
S           37.13       38.19       9.77        
H           35.54       41.39       9.89        
H           36.98       41.17       7.91        
C           36.13       40.49       9.7         
C           36.15       39.38       10.5        
C           38.73       39.24       3.69        
C           38.95       38.78       4.95        
N           37.83       40.24       3.78        
C           37.45       40.44       5.15        
C           39.71       37.86       5.74        
O           40.71       37.18       5.41        
O           36.72       41.32       5.54        
C           39.95       37.03       8.12        
C           37.21       41.09       2.74        
H           36.12543    40.98154    2.74723     
H           37.64       40.96       1.72        
H           37.44       42.13       2.88        
H           39.21       36.55       8.81        
H           40.74288    37.59738    8.60737     
H           40.35       36.25       7.52        
N           39.3        37.9        7.11        
C           38.09       39.46       5.97        
C           38.26       38.84       7.22        
C           41.06       38.27       0.73        
C           39.74       38.25       0.35        
S           41.2        38.75       2.38        
H           37.74       38.55       1.26        
H           39.45       38.07       -0.63       
C           38.82       38.6        1.36        
C           39.41       38.77       2.54        
C           44.48       38.85       -1.22       
C           43.68       38.08       -2.07       
S           43.67       39.14       0.27        
H           41.58       37.4        -2.02       
H           44.06       37.67       -3.03       
C           42.36       37.86       -1.44       
C           42.23       38.29       -0.17       
C           48.24       39.41       -2.51       
C           48.12       39.88       -1.22       
S           46.62       38.89       -3.08       
H           46.6        40.01       0.33        
H           49.03       40.33       -0.66       
C           46.84       39.7        -0.66       
C           45.9        39.14       -1.49       
C           52.62       40.56       -3.77       
C           51.56       39.76       -4.0        
N           52.28       41.56       -2.94       
C           50.94       41.35       -2.48       
C           51.02       38.57       -4.68       
O           51.61       37.84       -5.44       
O           50.29       42.24       -1.92       
C           49.05       37.09       -4.45       
C           52.94       42.89       -2.72       
H           53.30983    42.93978    -1.69587    
H           52.18       43.7        -2.86       
H           53.65       43.13       -3.52       
H           48.02       37.24       -4.67       
H           49.16493    36.37167    -3.63828    
H           49.53       36.59       -5.26       
N           49.71       38.34       -4.22       
C           50.45       40.13       -3.15       
C           49.37       39.37       -3.38       
C           56.23       39.81       -5.08       
C           55.37       39.65       -6.12       
S           55.4        40.42       -3.64       
H           53.16       39.64       -6.38       
H           55.63       39.32       -7.07       
C           54.01       39.81       -5.74       
C           53.86       40.41       -4.49       
C           60.11       39.46       -5.67       
C           59.86       39.98       -4.39       
S           58.63       39.18       -6.49       
H           58.06       40.63       -3.19       
H           60.65       40.14       -3.67       
C           58.48       40.17       -4.09       
C           57.65       39.63       -5.08       
C           63.86       38.56       -6.27       
C           63.29       38.63       -7.52       
S           62.56       38.46       -5.17       
H           61.29       39.13       -8.4        
H           63.85       38.6        -8.39       
C           61.87       38.89       -7.51       
C           61.39       39.03       -6.22       
C           68.53       38.27       -7.08       
C           67.49       38.1        -6.27       
N           67.98       38.48       -8.32       
C           66.58       38.65       -8.33       
C           67.26       37.98       -4.85       
O           67.98       37.82       -3.88       
O           65.88       38.72       -9.33       
C           65.16       38.23       -3.48       
C           68.58       38.07       -9.54       
H           68.05624    37.20166    -9.93971    
H           69.62       37.78       -9.43       
H           68.67       38.92       -10.24      
H           64.34       37.56       -3.27       
H           65.02037    39.21436    -3.0332     
H           65.94       37.89       -2.78       
N           65.79       38.24       -4.76       
C           66.28       38.34       -6.89       
C           65.27       38.36       -6.01       
C           72.41       38.57       -6.65       
C           71.92       37.61       -5.79       
S           71.05       39.14       -7.58       
H           70.11       36.86       -4.91       
H           72.6        37.09       -5.09       
C           70.56       37.41       -5.75       
C           69.96       38.12       -6.79       
C           75.59       40.74       -7.3        
C           76.05       39.44       -7.12       
S           73.85       40.74       -7.46       
H           75.24       37.51       -6.37       
H           77.09       39.11       -7.09       
C           75.02       38.55       -6.74       
C           73.75       39.07       -6.93       
C           77.87       43.76       -8.12       
C           76.69       44.25       -7.53       
S           77.8        42.01       -8.22       
H           74.86       43.41       -6.66       
H           76.47       45.29       -7.34       
C           75.87       43.19       -7.07       
C           76.28       41.98       -7.47       
C           80.35       47.71       -9.46       
C           80.26       46.31       -9.4        
N           79.4        48.21       -8.64       
C           78.52       47.2        -8.07       
C           80.93       45.07       -9.78       
O           82.02       44.91       -10.31      
O           77.5        47.42       -7.47       
C           80.06       42.81       -10.21      
C           79.38       49.5        -8.01       
H           79.60603    49.37992    -6.95048    
H           78.46       50.02       -8.17       
H           80.21       50.17       -8.32       
H           79.14       42.4        -10.63      
H           80.68447    42.00025    -9.83258    
H           80.69       43.1        -11.06      
N           80.0        44.05       -9.38       
C           79.12       45.95       -8.67       
C           78.95       44.59       -8.66       
C           83.42       49.16       -11.44      
C           82.44       50.12       -11.38      
S           82.98       47.79       -10.51      
H           80.31       50.22       -10.69      
H           82.43       50.95       -12.01      
C           81.25       49.67       -10.72      
C           81.38       48.43       -10.13      
C           86.58       49.97       -13.49      
C           86.54       48.67       -13.28      
S           84.95       50.59       -13.08      
H           85.56       47.2        -12.09      
H           87.33       48.04       -13.51      
C           85.54       48.18       -12.42      
C           84.6        49.17       -12.16      
C           88.36       52.45       -15.8       
C           88.77       51.24       -16.14      
S           87.17       52.46       -14.57      
H           88.45       49.19       -15.37      
H           89.43       50.98       -16.95      
C           88.3        50.22       -15.23      
C           87.46       50.76       -14.29      
C           90.3        54.38       -19.66      
C           89.79       54.56       -18.35      
N           90.0        53.06       -19.99      
C           89.26       52.35       -18.97      
C           89.71       55.57       -17.26      
O           90.24       56.65       -17.13      
O           88.98       51.18       -19.07      
C           88.74       55.4        -14.97      
C           90.08       52.42       -21.32      
H           89.1202     52.57042    -21.81423   
H           90.29       51.36       -21.27      
H           90.88       52.77       -21.93      
H           88.47       54.65       -14.19      
H           87.9051     56.09575    -14.88651   
H           89.67       55.89       -14.81      
N           88.94       54.8        -16.25      
C           89.14       53.38       -17.95      
C           88.68       53.54       -16.69      
C           93.23       56.34       -21.44      
C           92.52       57.27       -20.76      
S           92.54       54.77       -21.25      
H           90.65       57.19       -19.43      
H           92.82       58.3        -20.65      
C           91.37       56.67       -20.08      
C           91.13       55.3        -20.39      
C           96.34       56.2        -23.83      
C           96.47       57.28       -23.07      
S           94.9        55.3        -23.39      
H           95.19       58.36       -21.55      
H           97.36       57.95       -23.19      
C           95.42       57.44       -22.14      
C           94.47       56.48       -22.17      
C           97.83       53.92       -26.69      
C           98.81       54.86       -26.44      
S           96.5        54.19       -25.6       
H           99.11       56.59       -25.16      
H           99.7        54.86       -27.02      
C           98.49       55.71       -25.39      
C           97.24       55.52       -24.79      
C           98.81       52.47       -31.24      
C           98.18       52.32       -30.02      
N           99.29       53.76       -31.19      
C           99.26       54.3        -29.84      
C           97.42       51.34       -29.3       
O           96.88       50.24       -29.65      
O           99.8        55.35       -29.51      
C           96.45       51.23       -27.06      
C           99.44       54.67       -32.27      
H           98.71619    55.47814    -32.16459   
H           99.27       54.14       -33.2       
H           100.49      54.98       -32.42      
H           95.7        51.87       -26.58      
H           96.98511    50.75196    -26.23949   
H           95.91       50.53       -27.67      
N           97.31       51.85       -28.0       
C           98.4        53.37       -29.09      
C           97.82       53.13       -27.88      
C           98.52       50.69       -34.73      
C           97.44       50.33       -33.99      
S           99.6        51.71       -33.81      
H           96.74       50.68       -31.92      
H           96.66       49.68       -34.31      
C           97.45       50.92       -32.71      
C           98.51       51.78       -32.46      
C           100.26      50.02       -38.2       
C           99.03       49.41       -38.23      
S           100.51      50.79       -36.66      
H           97.25       49.41       -36.92      
H           98.68       48.95       -39.16      
C           98.32       49.59       -36.99      
C           98.98       50.33       -36.02      
C           103.35      50.72       -40.6       
C           102.37      50.06       -41.34      
S           102.73      50.94       -39.01      
H           100.18      49.48       -40.99      
H           102.55      49.83       -42.35      
C           101.12      49.9        -40.58      
C           101.21      50.22       -39.25      
C           107.26      50.2        -43.34      
C           106.6       50.74       -42.24      
N           106.23      49.56       -44.04      
C           104.95      49.95       -43.47      
C           106.81      51.68       -41.15      
O           107.74      52.44       -40.96      
O           103.91      49.74       -44.1       
C           105.55      52.56       -39.22      
C           106.17      48.33       -44.86      
H           105.45088   47.55503    -44.59469   
H           107.11      47.81       -44.88      
H           106.01      48.65       -45.88      
H           104.97      52.12       -38.46      
H           105.29543   53.6001     -39.42366   
H           106.62      52.62       -38.83      
N           105.63      51.71       -40.42      
C           105.21      50.53       -42.16      
C           104.69      50.95       -41.02      
C           111.09      50.4        -44.47      
C           110.98      50.75       -43.21      
S           109.51      49.9        -45.07      
H           109.4       50.91       -41.65      
H           111.89      51.11       -42.61      
C           109.61      50.65       -42.68      
C           108.69      50.23       -43.56      
C           113.38      50.17       -47.56      
C           114.09      50.93       -46.66      
S           111.92      49.54       -46.86      
H           114.05      51.43       -44.57      
H           114.97      51.44       -46.88      
C           113.51      50.93       -45.38      
C           112.19      50.44       -45.39      
C           112.69      50.04       -51.4       
C           114.02      50.47       -51.2       
S           111.92      49.73       -49.85      
H           115.44      50.71       -49.48      
H           114.73      50.78       -51.99      
C           114.41      50.33       -49.82      
C           113.41      50.03       -48.95      
C           111.74      51.33       -55.91      
C           111.41      50.64       -54.86      
N           112.89      52.03       -55.57      
C           113.27      51.7        -54.23      
C           110.36      49.78       -54.29      
O           109.28      49.39       -54.78      
O           114.31      52.14       -53.72      
C           110.11      48.42       -52.31      
C           113.84      52.72       -56.33      
H           114.28734   52.10321    -57.10946   
H           113.5       53.64       -56.83      
H           114.68      53.08       -55.69      
H           110.12      48.45       -51.26      
H           110.57705   47.45842    -52.52292   
H           109.03      48.45       -52.55      
N           110.74      49.5        -52.95      
C           112.25      50.87       -53.75      
C           111.9       50.15       -52.61      
C           110.57      49.84       -59.37      
C           110.98      51.15       -59.57      
S           110.65      49.45       -57.68      
H           111.7       52.78       -58.37      
H           110.95      51.64       -60.52      
C           111.38      51.78       -58.34      
C           111.22      51.02       -57.19      
C           109.02      47.12       -61.69      
C           110.29      47.41       -62.19      
S           108.74      47.99       -60.24      
H           111.92      48.82       -61.67      
H           110.62      46.9        -63.12      
C           110.94      48.46       -61.45      
C           110.22      48.83       -60.37      
C           105.85      44.81       -62.17      
C           106.52      44.98       -63.42      
S           106.68      45.92       -61.0       
H           108.34      45.99       -64.2       
H           106.08      44.7        -64.31      
C           107.74      45.74       -63.36      
C           108.01      46.25       -62.08      
C           102.34      41.86       -63.71      
C           102.93      42.56       -62.69      
N           103.29      41.82       -64.73      
C           104.42      42.7        -64.46      
C           102.79      42.92       -61.25      
O           101.98      42.63       -60.39      
O           105.29      42.81       -65.33      
C           103.95      44.27       -59.65      
C           103.46      40.78       -65.72      
H           104.34266   40.16783    -65.53493   
H           103.43      41.22       -66.76      
H           102.66      39.99       -65.74      
H           104.55      45.23       -59.56      
H           104.3575    43.5586     -58.9317    
H           103.0       44.56       -59.49      
N           103.97      43.66       -60.92      
C           104.18      43.19       -63.09      
C           104.7       43.95       -62.08      
C           99.1        39.64       -63.9       
C           99.49       39.78       -62.63      
S           100.23      40.36       -64.97      
H           101.02      40.88       -61.46      
H           98.95       39.39       -61.77      
C           100.66      40.6        -62.46      
C           101.2       41.0        -63.63      
C           96.05       38.67       -66.11      
C           95.79       38.08       -64.91      
S           97.54       39.54       -66.16      
H           96.83       37.82       -62.94      
H           94.97       37.34       -64.79      
C           96.82       38.32       -63.9       
C           97.83       39.11       -64.48      
C           93.47       38.61       -69.03      
C           94.45       39.33       -69.42      
S           93.66       38.15       -67.4       
H           96.41       40.1        -68.47      
H           94.59       39.76       -70.36      
C           95.53       39.5        -68.42      
C           95.25       38.84       -67.27      
H           25.5        39.99       18.31       
H           92.53       38.63       -69.55      
