392

C           43.48       11.34       36.97       
C           42.52       12.37       37.04       
N           44.48       11.72       37.85       
C           44.19       13.03       38.4        
C           41.23       12.68       36.53       
O           40.47       12.07       35.88       
O           44.95       13.55       39.16       
C           39.61       14.57       36.81       
C           45.37       10.8        38.58       
H           45.07673    10.69271    39.62431    
H           46.41       11.17       38.57       
H           45.33       9.84        38.14       
H           39.61       15.6        36.97       
H           38.88935    14.17043    37.52352    
H           39.32       14.36       35.78       
N           40.86       13.95       37.09       
C           42.84       13.39       37.94       
C           41.86       14.33       37.9        
C           42.31       7.91        35.66       
C           43.63       7.97        35.48       
S           41.7        9.35        36.4        
H           45.18       9.54        35.67       
H           44.21       7.17        35.09       
C           44.13       9.27        35.71       
C           43.24       10.06       36.33       
C           40.56       4.41        35.69       
C           39.58       5.4         35.36       
S           42.11       5.13        35.84       
H           39.49       7.57        35.11       
H           38.53       5.2         35.0        
C           40.11       6.72        35.43       
C           41.44       6.74        35.62       
C           40.89       0.54        36.43       
C           39.75       0.76        35.69       
S           41.59       2.09        36.82       
H           38.52       2.48        34.91       
H           39.21       -0.14       35.33       
C           39.46       2.14        35.44       
C           40.42       2.95        35.86       
C           41.01       -4.17       37.6        
C           41.58       -2.87       37.78       
N           39.7        -3.97       37.14       
C           39.5        -2.6        36.81       
C           42.8        -2.17       38.27       
O           43.82       -2.49       38.85       
O           38.43       -2.26       36.35       
C           43.89       -0.05       37.4        
C           38.61       -4.94       37.02       
H           37.84474    -4.72135    37.76476    
H           38.98       -5.86       37.35       
H           38.38       -4.98       35.99       
H           43.74       1.01        37.33       
H           44.50272    -0.31361    36.53792    
H           44.58       -0.27       38.22       
N           42.67       -0.93       37.54       
C           40.71       -1.93       37.15       
C           41.32       -0.71       37.05       
C           42.64       -7.61       38.33       
C           43.27       -6.62       39.02       
S           41.22       -7.03       37.5        
H           42.89       -4.45       39.51       
H           44.2        -6.8        39.53       
C           42.6        -5.33       38.95       
C           41.54       -5.36       38.13       
C           44.41       -11.07      38.61       
C           43.67       -11.12      37.46       
S           44.16       -9.58       39.43       
H           42.19       -9.83       36.42       
H           43.7        -11.98      36.75       
C           42.92       -9.91       37.22       
C           43.1        -8.98       38.17       
C           47.48       -13.55      39.04       
C           47.34       -12.8       40.17       
S           46.21       -13.13      37.89       
H           45.82       -11.36      40.89       
H           48.12       -12.93      40.89       
C           46.23       -11.95      40.13       
C           45.52       -11.93      38.98       
C           51.57       -16.11      39.81       
C           50.61       -15.75      38.87       
N           51.57       -15.18      40.82       
C           50.44       -14.31      40.69       
C           49.98       -16.12      37.63       
O           50.31       -16.91      36.77       
O           50.34       -13.49      41.6        
C           47.84       -15.62      36.51       
C           52.73       -14.73      41.67       
H           53.16939    -13.88783   41.13541    
H           53.45       -15.48      41.94       
H           52.4        -14.49      42.71       
H           47.5        -14.74      36.02       
H           46.97972    -16.18137   36.87453    
H           48.41       -16.22      35.77       
N           48.78       -15.3       37.55       
C           49.79       -14.68      39.44       
C           48.64       -14.41      38.63       
C           54.33       -18.91      40.16       
C           54.06       -18.62      38.86       
S           53.34       -17.92      41.12       
H           52.68       -17.36      37.64       
H           54.57       -19.15      38.06       
C           53.07       -17.63      38.62       
C           52.58       -17.13      39.76       
C           56.96       -21.59      41.25       
C           56.32       -21.23      42.38       
S           56.3        -20.72      39.85       
H           54.54       -19.93      42.85       
H           56.43       -21.81      43.3        
C           55.24       -20.27      42.14       
C           55.22       -19.85      40.87       
C           59.43       -24.37      40.04       
C           59.54       -24.24      41.38       
S           58.3        -23.12      39.43       
H           58.53       -23.13      42.98       
H           60.34       -24.69      41.93       
C           58.61       -23.28      41.92       
C           57.86       -22.66      41.01       
C           63.59       -26.2       38.47       
C           62.28       -26.06      38.39       
N           63.92       -25.74      39.71       
C           62.76       -25.19      40.38       
C           61.2        -26.35      37.48       
O           61.18       -26.95      36.43       
O           62.75       -24.7       41.53       
C           58.69       -25.95      37.48       
C           65.24       -25.49      40.3        
H           65.52246    -24.43783   40.33531    
H           66.01       -25.99      39.68       
H           65.36       -26.02      41.29       
H           58.13       -25.06      37.28       
H           58.0506     -26.62415   38.0499     
H           58.93       -26.35      36.54       
N           60.04       -25.74      38.03       
C           61.68       -25.28      39.44       
C           60.33       -25.03      39.14       
C           65.77       -26.69      35.43       
C           66.28       -27.45      36.42       
S           64.47       -25.73      35.94       
H           65.74       -28.04      38.42       
H           67.21       -27.96      36.46       
C           65.53       -27.47      37.53       
C           64.46       -26.64      37.39       
C           68.03       -25.18      32.71       
C           66.74       -25.01      32.38       
S           68.11       -26.33      34.03       
H           64.69       -25.52      33.02       
H           66.48       -24.4       31.55       
C           65.81       -25.63      33.19       
C           66.35       -26.38      34.14       
C           70.98       -23.42      30.9        
C           71.46       -24.11      31.95       
S           69.21       -23.44      30.91       
H           70.62       -25.41      33.51       
H           72.49       -24.25      32.16       
C           70.46       -24.77      32.69       
C           69.21       -24.64      32.15       
C           75.1        -21.81      29.0        
C           73.72       -21.72      29.07       
N           75.51       -22.88      29.78       
C           74.33       -23.42      30.37       
C           72.61       -20.94      28.62       
O           72.45       -19.94      27.96       
O           74.44       -24.35      31.13       
C           70.09       -21.04      28.85       
C           76.9        -23.36      30.19       
H           77.37137    -22.76008   30.96847    
H           77.5        -23.39      29.33       
H           76.93       -24.39      30.5        
H           69.41       -21.06      29.67       
H           69.65135    -21.3513    27.90196    
H           70.22       -20.01      28.78       
N           71.41       -21.64      29.12       
C           73.13       -22.71      29.87       
C           71.79       -22.67      29.97       
C           77.79       -19.54      27.22       
C           76.55       -19.06      26.96       
S           77.64       -20.91      28.3        
H           74.45       -19.51      27.37       
H           76.39       -18.26      26.26       
C           75.51       -19.78      27.51       
C           75.9        -20.89      28.23       
C           81.04       -17.38      26.69       
C           81.32       -18.67      26.93       
S           79.26       -17.25      26.71       
H           80.39       -20.59      27.32       
H           82.25       -18.99      27.0        
C           80.28       -19.54      27.03       
C           79.05       -18.92      26.98       
C           83.37       -14.21      26.69       
C           83.73       -15.06      25.73       
S           82.06       -14.86      27.53       
H           82.93       -16.8       24.67       
H           84.56       -14.86      25.11       
C           82.76       -16.16      25.52       
C           81.83       -16.22      26.44       
C           87.32       -11.52      27.06       
C           85.94       -11.64      27.23       
N           87.75       -12.73      26.61       
C           86.65       -13.58      26.25       
C           84.77       -10.95      27.74       
O           84.63       -9.82       28.19       
O           86.81       -14.69      25.91       
C           82.37       -11.43      27.8        
C           89.08       -13.4       26.65       
H           89.18599    -14.08542   27.49087    
H           89.91       -12.71      26.62       
H           89.21       -14.02      25.74       
H           81.99       -12.03      28.62       
H           81.73657    -11.40889   26.9132     
H           82.44       -10.39      28.11       
N           83.71       -11.91      27.54       
C           85.48       -12.88      26.81       
C           84.17       -13.1       27.1        
C           90.01       -8.9        28.1        
C           88.96       -8.69       28.88       
S           89.75       -10.02      26.84       
H           86.88       -9.6        28.96       
H           88.92       -7.92       29.7        
C           87.87       -9.54       28.49       
C           88.2        -10.45      27.52       
C           93.61       -7.33       27.82       
C           93.12       -7.09       29.08       
S           92.44       -8.25       26.86       
H           91.28       -7.49       30.22       
H           93.75       -6.57       29.8        
C           91.79       -7.53       29.27       
C           91.31       -8.25       28.18       
C           97.01       -7.09       25.89       
C           96.91       -6.05       26.75       
S           95.64       -8.12       26.14       
H           95.39       -5.2        28.23       
H           97.71       -5.33       26.94       
C           95.62       -5.95       27.51       
C           94.84       -6.99       27.24       
C           101.68      -6.73       24.94       
C           100.42      -7.21       24.6        
N           101.46      -6.15       26.19       
C           100.12      -6.45       26.69       
C           99.74       -8.01       23.6        
O           100.1       -8.53       22.56       
O           99.7        -6.23       27.82       
C           97.27       -8.06       23.04       
C           102.34      -5.37       26.99       
H           102.41302   -4.34047    26.63952    
H           103.27      -5.87       27.09       
H           102.02      -5.29       27.99       
H           96.61       -7.24       23.22       
H           96.84159    -9.06204    23.01822    
H           97.8        -7.81       22.18       
N           98.32       -8.07       24.03       
C           99.43       -7.03       25.57       
C           98.18       -7.47       25.2        
C           105.25      -7.03       23.37       
C           104.35      -7.29       22.42       
S           104.57      -6.85       24.99       
H           102.18      -7.33       22.31       
H           104.52      -7.53       21.35       
C           103.05      -7.24       22.98       
C           102.98      -6.86       24.27       
C           108.82      -7.29       22.08       
C           108.98      -6.84       23.33       
S           107.21      -7.34       21.53       
H           107.58      -6.36       24.96       
H           109.96      -6.63       23.78       
C           107.72      -6.65       23.95       
C           106.63      -6.96       23.14       
C           111.85      -6.8        19.76       
C           110.99      -7.69       19.12       
S           111.35      -6.4        21.34       
H           109.1       -8.65       19.58       
H           111.18      -8.06       18.12       
C           109.88      -7.97       19.87       
C           109.86      -7.33       21.06       
C           115.78      -7.32       17.14       
C           115.07      -6.63       18.02       
N           115.12      -8.56       16.98       
C           113.82      -8.5        17.62       
C           115.06      -5.35       18.7        
O           115.93      -4.47       18.76       
O           113.02      -9.47       17.66       
C           113.31      -4.04       19.97       
C           115.59      -9.88       16.52       
H           114.92988   -10.30799   15.76557    
H           115.61      -10.55      17.34       
H           116.63      -9.79       16.25       
H           112.87      -4.08       20.99       
H           112.71607   -3.49498    19.23632    
H           114.24      -3.41       20.03       
N           113.81      -5.32       19.4        
C           113.92      -7.3        18.44       
C           113.17      -6.55       19.31       
C           118.97      -6.7        15.02       
C           118.94      -5.78       16.06       
S           117.55      -7.56       15.16       
H           117.88      -5.4        17.97       
H           119.79      -5.11       16.16       
C           117.96      -5.97       17.06       
C           117.11      -6.97       16.66       
C           120.6       -7.21       11.55       
C           121.61      -6.86       12.38       
S           119.09      -7.17       12.38       
H           121.89      -6.18       14.41       
H           122.61      -6.69       12.0        
C           121.18      -6.55       13.7        
C           119.87      -6.76       13.88       
C           119.43      -7.43       7.9         
C           120.79      -7.07       7.79        
S           118.99      -7.69       9.55        
H           122.48      -6.82       9.27        
H           121.26      -6.88       6.82        
C           121.42      -7.05       9.06        
C           120.56      -7.35       10.12       
C           117.5       -6.63       3.54        
C           117.39      -7.09       4.83        
N           118.78      -6.17       3.4         
C           119.51      -6.47       4.59        
C           116.37      -7.63       5.75        
O           115.15      -7.81       5.6         
O           120.7       -6.42       4.71        
C           116.37      -8.58       8.02        
C           119.48      -5.36       2.37        
H           118.99385   -4.38769    2.29018     
H           120.58      -5.29       2.69        
H           119.62      -5.92       1.45        
H           116.4       -8.1        9.0         
H           116.69856   -9.58622    8.28011     
H           115.33      -8.73       7.68        
N           117.05      -7.81       6.98        
C           118.57      -6.98       5.57        
C           118.39      -7.39       6.88        
C           115.03      -7.24       0.56        
C           114.32      -7.0        1.71        
S           116.71      -6.91       0.76        
H           114.85      -6.44       3.9         
H           113.21      -7.04       1.83        
C           115.17      -6.7        2.88        
C           116.49      -6.6        2.49        
C           112.87      -8.22       -2.58       
C           114.11      -8.78       -2.68       
S           112.89      -7.16       -1.15       
H           115.98      -9.02       -1.5        
H           114.35      -9.42       -3.5        
C           115.01      -8.57       -1.58       
C           114.5       -7.64       -0.71       
C           109.59      -8.05       -4.64       
C           110.59      -8.56       -5.46       
S           110.35      -7.69       -3.08       
H           112.82      -8.91       -5.33       
H           110.31      -8.73       -6.44       
C           111.89      -8.64       -4.85       
C           111.89      -8.13       -3.57       
C           106.01      -6.56       -7.63       
C           106.49      -6.66       -6.35       
N           107.1       -6.81       -8.45       
C           108.23      -7.41       -7.77       
C           106.07      -6.53       -4.93       
O           105.04      -6.2        -4.38       
O           109.27      -7.73       -8.27       
C           106.93      -7.53       -2.81       
C           107.22      -6.44       -9.82       
H           107.97643   -5.66294    -9.93003    
H           106.31      -6.1        -10.25      
H           107.52      -7.32       -10.31      
H           107.56      -6.94       -2.23       
H           106.87257   -8.5924     -2.57311    
H           105.94      -7.14       -2.49       
N           107.09      -7.25       -4.23       
C           107.79      -7.28       -6.39       
C           108.23      -7.5        -5.05       
C           102.29      -5.45       -8.57       
C           102.66      -4.75       -7.47       
S           103.62      -6.39       -9.14       
H           104.52      -4.61       -6.3        
H           102.04      -4.06       -6.88       
C           104.06      -5.04       -7.13       
C           104.77      -5.91       -7.99       
C           98.68       -5.17       -9.97       
C           99.43       -5.91       -10.84      
S           99.59       -4.97       -8.46       
H           101.59      -6.58       -10.96      
H           99.11       -6.27       -11.84      
C           100.76      -6.15       -10.38      
C           101.0       -5.58       -9.19       
C           95.18       -4.03       -11.12      
C           95.38       -3.62       -9.81       
S           96.51       -4.97       -11.6       
H           96.95       -3.75       -8.25       
H           94.68       -2.85       -9.4        
C           96.58       -4.07       -9.22       
C           97.34       -4.78       -10.07      
H           41.94       15.29       38.37       
H           94.41       -3.6        -11.83      
