392

C           44.57       11.68       25.14       
C           44.42       10.43       24.53       
N           43.45       11.95       25.93       
C           42.65       10.79       26.01       
C           45.01       9.52        23.59       
O           45.98       9.54        22.9        
O           41.71       10.64       26.81       
C           44.2        7.23        22.69       
C           42.96       13.21       26.49       
H           41.91394    13.41224    26.25987    
H           43.39       14.08       25.99       
H           43.24       13.33       27.54       
H           43.68       7.39        21.73       
H           43.77799    6.34514     23.16647    
H           45.26       7.1         22.54       
N           44.01       8.44        23.55       
C           43.12       9.88        24.96       
C           42.96       8.66        24.42       
C           47.49       14.32       24.87       
C           47.42       13.59       23.71       
S           46.24       13.85       25.98       
H           46.1        11.99       22.87       
H           48.1        13.71       22.89       
C           46.28       12.71       23.63       
C           45.59       12.67       24.81       
C           50.35       16.59       26.29       
C           49.93       17.17       25.12       
S           49.48       15.05       26.52       
H           48.43       16.68       23.58       
H           50.42       18.04       24.66       
C           48.91       16.41       24.49       
C           48.45       15.35       25.19       
C           53.14       17.48       28.9        
C           53.45       18.06       27.66       
S           51.63       16.63       28.86       
H           52.52       18.25       25.64       
H           54.36       18.61       27.46       
C           52.42       17.86       26.66       
C           51.4        17.08       27.17       
C           57.42       17.31       31.12       
C           56.05       17.28       31.18       
N           57.81       17.59       29.85       
C           56.61       17.65       29.0        
C           54.94       17.05       32.06       
O           54.9        16.74       33.22       
O           56.7        17.84       27.82       
C           52.57       17.81       31.88       
C           59.1        17.94       29.27       
H           59.46179    17.28736    28.47548    
H           59.83       17.82       30.05       
H           59.09       18.97       28.94       
H           51.67       17.19       31.51       
H           52.34059    18.86385    31.72228    
H           52.63       17.65       32.95       
N           53.77       17.31       31.28       
C           55.46       17.44       29.85       
C           54.07       17.33       29.96       
C           60.05       16.39       34.0        
C           59.03       17.09       34.55       
S           59.79       16.26       32.25       
H           57.18       18.19       33.94       
H           58.97       17.21       35.6        
C           58.03       17.58       33.62       
C           58.33       17.3        32.3        
C           62.8        13.83       35.25       
C           62.46       14.68       36.24       
S           61.88       14.28       33.83       
H           61.25       16.41       36.53       
H           62.9        14.63       37.2        
C           61.51       15.64       35.86       
C           61.01       15.53       34.65       
C           64.72       10.58       34.5        
C           64.3        10.51       35.83       
S           64.15       12.02       33.69       
H           63.37       11.91       37.22       
H           64.41       9.65        36.48       
C           63.59       11.69       36.2        
C           63.58       12.6        35.19       
C           68.71       7.93        34.63       
C           67.74       8.51        33.85       
N           68.27       8.02        35.97       
C           67.05       8.75        36.12       
C           67.44       8.86        32.49       
O           67.96       8.64        31.43       
O           66.55       9.04        37.15       
C           65.5        10.12       31.37       
C           68.69       7.16        37.08       
H           68.01229    6.3146      37.19877    
H           68.6        7.69        38.04       
H           69.66       6.78        36.94       
H           65.27       11.19       31.33       
H           64.59104    9.52328     31.29368    
H           66.08       9.89        30.46       
N           66.22       9.65        32.63       
C           66.76       9.13        34.74       
C           65.81       9.75        33.99       
C           72.24       6.36        33.88       
C           71.52       6.15        32.8        
S           71.41       7.16        35.14       
H           69.39       6.62        32.17       
H           71.87       5.61        31.91       
C           70.1        6.6         32.96       
C           69.87       7.22        34.21       
C           76.06       6.14        34.54       
C           75.89       6.47        33.29       
S           74.54       5.84        35.38       
H           74.23       6.64        31.9        
H           76.67       6.74        32.68       
C           74.59       6.51        32.93       
C           73.67       6.17        33.91       
C           78.54       5.29        37.36       
C           79.19       6.11        36.45       
S           77.0        4.88        36.8        
H           78.73       7.08        34.53       
H           80.13       6.43        36.68       
C           78.41       6.43        35.29       
C           77.16       5.89        35.36       
C           81.09       6.67        41.27       
C           80.42       5.68        40.68       
N           80.68       7.89        40.67       
C           80.13       7.56        39.33       
C           80.13       4.25        40.65       
O           80.5        3.3         41.29       
O           79.71       8.4         38.58       
C           79.1        2.68        39.09       
C           80.92       9.2         41.08       
H           81.81235    9.64261     40.63739    
H           81.06       9.33        42.18       
H           80.13       9.82        40.71       
H           79.07       2.63        37.99       
H           78.26718    2.30986     39.68792    
H           80.09       2.23        39.38       
N           79.32       4.06        39.39       
C           79.84       6.14        39.39       
C           79.07       5.23        38.72       
C           83.74       6.6         44.17       
C           83.05       5.36        44.21       
S           83.14       7.66        42.92       
H           81.46       4.46        42.92       
H           83.17       4.6         44.99       
C           82.05       5.3         43.13       
C           81.99       6.51        42.42       
C           87.07       8.44        45.57       
C           86.63       7.4         46.46       
S           85.91       8.39        44.24       
H           85.18       5.83        46.57       
H           87.11       7.35        47.44       
C           85.58       6.6         45.96       
C           84.94       7.1         44.87       
C           89.89       11.13       45.1        
C           90.19       10.38       46.22       
S           88.42       10.43       44.47       
H           89.51       8.77        47.37       
H           91.1        10.64       46.79       
C           89.28       9.34        46.5        
C           88.22       9.3         45.69       
C           93.09       14.69       44.61       
C           92.06       13.96       44.17       
N           93.33       14.3        45.93       
C           92.44       13.14       46.24       
C           91.1        13.95       43.04       
O           91.1        14.6        41.99       
O           92.48       12.49       47.32       
C           89.83       12.15       42.07       
C           94.4        14.73       46.84       
H           94.09335    14.85545    47.87843    
H           94.77       15.69       46.57       
H           95.34       14.1        46.62       
H           88.85       11.7        42.24       
H           90.56944    11.44511    41.68991    
H           89.65       12.94       41.37       
N           90.35       12.76       43.27       
C           91.57       13.01       45.12       
C           90.53       12.29       44.58       
C           95.36       17.48       42.76       
C           94.63       16.82       41.88       
S           94.88       16.94       44.36       
H           93.27       15.06       41.82       
H           94.69       17.09       40.85       
C           93.94       15.7        42.41       
C           93.88       15.6        43.79       
C           97.07       20.82       42.03       
C           97.59       20.42       43.21       
S           95.86       19.68       41.41       
H           97.47       18.61       44.54       
H           98.14       21.1        43.79       
C           97.11       19.12       43.66       
C           96.19       18.68       42.74       
C           97.35       24.56       41.28       
C           96.77       23.98       40.18       
S           97.62       23.4        42.46       
H           96.27       21.96       39.48       
H           96.42       24.6        39.36       
C           96.67       22.54       40.25       
C           97.08       22.13       41.46       
C           99.07       28.46       39.24       
C           98.68       27.79       40.36       
N           98.66       27.75       38.14       
C           98.02       26.51       38.53       
C           98.7        27.93       41.8        
O           99.11       28.76       42.51       
O           97.47       25.72       37.75       
C           98.08       26.51       43.73       
C           98.75       28.15       36.74       
H           98.94847    27.28767    36.10352    
H           99.61       28.76       36.64       
H           97.95       28.72       36.36       
H           98.9        25.95       44.24       
H           97.1102     26.19145    44.11226    
H           98.25       27.56       44.06       
N           98.17       26.68       42.24       
C           98.13       26.53       40.03       
C           97.9        25.88       41.23       
C           101.28      31.77       38.98       
C           100.51      31.87       40.1        
S           100.93      30.31       38.15       
H           98.94       30.67       41.08       
H           100.63      32.68       40.77       
C           99.59       30.74       40.2        
C           99.64       29.77       39.2        
C           104.45      33.18       37.19       
C           104.32      33.87       38.38       
S           103.0       32.25       37.0        
H           102.99      34.07       40.1        
H           105.16      34.43       38.77       
C           103.15      33.55       39.16       
C           102.35      32.63       38.54       
C           106.97      32.5        34.27       
C           107.59      33.35       35.14       
S           105.35      32.24       34.8        
H           106.99      34.42       37.04       
H           108.56      33.68       34.9        
C           106.72      33.75       36.28       
C           105.51      33.14       36.25       
C           110.69      31.24       31.37       
C           109.32      31.32       31.65       
N           111.35      31.57       32.52       
C           110.39      31.86       33.54       
C           108.07      31.15       30.99       
O           107.75      30.77       29.85       
O           110.75      32.35       34.63       
C           105.66      31.33       31.61       
C           112.8       31.39       32.99       
H           112.87188   30.62093    33.75907    
H           113.16      32.3        33.42       
H           113.4       31.14       32.08       
H           105.18      32.06       32.23       
H           105.20036   30.34607    31.70337    
H           105.73      31.86       30.67       
N           107.03      31.31       31.99       
C           109.05      31.71       32.96       
C           107.69      31.85       33.15       
C           112.94      30.23       28.26       
C           111.81      30.91       27.86       
S           112.89      30.28       29.97       
H           109.9       31.82       28.8        
H           111.63      31.0        26.78       
C           110.87      31.34       28.89       
C           111.38      31.11       30.12       
C           115.47      28.81       25.67       
C           115.6       28.04       26.81       
S           114.05      29.79       25.78       
H           114.71      27.98       28.81       
H           116.33      27.27       26.91       
C           114.71      28.43       27.85       
C           113.95      29.54       27.49       
C           116.62      28.79       21.82       
C           117.26      27.79       22.52       
S           115.62      29.73       23.0        
H           117.42      27.0        24.61       
H           117.94      27.07       22.02       
C           117.04      27.8        23.95       
C           116.14      28.72       24.4        
C           116.8       27.25       17.4        
C           116.74      28.33       18.25       
N           117.02      26.09       18.19       
C           116.92      26.5        19.54       
C           116.88      29.78       18.25       
O           116.97      30.66       17.35       
O           116.95      25.71       20.54       
C           116.67      31.51       20.04       
C           117.71      24.88       17.86       
H           118.67348   24.87302    18.36967    
H           118.04      24.95       16.82       
H           117.12      23.99       17.97       
H           116.75      31.59       21.13       
H           115.8593    32.15151    19.69457    
H           117.59      32.04       19.78       
N           116.71      30.15       19.61       
C           116.73      27.88       19.62       
C           116.61      28.93       20.42       
C           116.39      26.66       13.48       
C           116.7       27.94       13.75       
S           116.57      25.73       14.94       
H           117.04      29.26       15.51       
H           116.69      28.67       13.03       
C           116.85      28.24       15.15       
C           116.76      27.14       15.97       
C           115.08      24.72       10.28       
C           115.15      26.03       10.0        
S           115.64      24.51       11.88       
H           115.52      27.94       11.09       
H           114.87      26.42       9.0         
C           115.45      26.86       11.13       
C           115.83      26.18       12.17       
C           112.82      22.28       8.19        
C           113.35      21.64       9.26        
S           113.36      23.91       8.3         
H           114.67      22.07       11.03       
H           113.19      20.62       9.37        
C           114.18      22.45       10.12       
C           114.35      23.73       9.66        
C           110.28      18.95       5.83        
C           110.69      20.29       5.86        
N           110.67      18.41       7.03        
C           111.18      19.39       7.92        
C           110.91      21.52       5.14        
O           110.7       21.76       3.98        
O           111.39      19.14       9.14        
C           112.04      23.75       5.38        
C           110.51      17.08       7.55        
H           111.42688   16.50444    7.42284     
H           110.36      16.94       8.59        
H           109.61      16.54       7.21        
H           113.04      24.06       5.55        
H           111.2763    24.52746    5.40064     
H           112.24      23.58       4.33        
N           111.7       22.4        5.96        
C           111.32      20.54       7.13        
C           111.93      21.79       7.13        
C           108.26      16.8        3.14        
C           108.57      18.04       2.64        
S           108.93      16.69       4.77        
H           109.47      19.93       3.28        
H           108.41      18.26       1.56        
C           109.14      18.94       3.59        
C           109.48      18.37       4.76        
C           106.39      14.11       0.88        
C           106.87      13.46       1.92        
S           106.82      15.82       0.95        
H           108.05      14.07       3.81        
H           106.84      12.38       1.99        
C           107.62      14.34       2.83        
C           107.6       15.63       2.47        
C           104.82      11.84       -1.84       
C           105.14      13.05       -2.35       
S           105.06      11.9        -0.12       
H           106.12      14.84       -1.73       
H           104.99      13.28       -3.4        
C           105.76      13.9        -1.44       
C           105.79      13.44       -0.2        
C           102.22      9.68        -5.35       
C           102.93      9.61        -4.16       
N           102.14      11.04       -5.51       
C           102.91      11.89       -4.62       
C           103.35      8.64        -3.13       
O           103.16      7.45        -3.15       
O           102.98      13.08       -4.82       
C           104.91      8.71        -1.14       
C           101.43      11.88       -6.56       
H           100.63146   12.47527    -6.11718    
H           101.07      11.23       -7.3        
H           102.14      12.69       -7.01       
H           104.47      9.13        -0.18       
H           105.98255   8.73145     -1.33306    
H           104.58      7.69        -1.2        
N           104.17      9.41        -2.21       
C           103.43      10.92       -3.67       
C           104.12      10.76       -2.51       
C           99.95       6.76        -6.4        
C           100.3       7.38        -7.57       
S           100.81      7.36        -5.02       
H           101.63      9.15        -8.05       
H           99.91       7.11        -8.53       
C           101.19      8.46        -7.34       
C           101.5       8.64        -5.98       
C           98.11       3.3         -6.23       
C           97.93       3.98        -5.04       
S           99.14       4.19        -7.29       
H           98.69       5.86        -4.15       
H           97.37       3.51        -4.2        
C           98.6        5.27        -5.03       
C           99.18       5.59        -6.21       
C           96.51       -0.36       -6.28       
C           97.38       -0.3        -7.3        
S           96.44       1.21        -5.56       
H           98.76       1.09        -8.24       
H           97.65       -1.23       -7.8        
C           98.1        0.93        -7.41       
C           97.69       1.93        -6.51       
H           42.56       7.86        25.03       
H           96.14       -1.26       -5.93       
