392

C           52.24       12.69       0.46        
C           51.21       12.0        -0.15       
N           51.77       13.95       0.85        
C           50.35       14.09       0.49        
C           50.81       10.79       -0.85       
O           51.38       9.82        -1.17       
O           49.73       15.05       0.77        
C           48.74       10.1        -2.06       
C           52.48       15.12       1.35        
H           52.63044    15.85788    0.56197     
H           53.45       14.86       1.85        
H           51.89       15.54       2.18        
H           48.86       10.31       -3.17       
H           47.70831    9.90656     -1.76625    
H           49.18       9.11        -1.76       
N           49.46       11.04       -1.26       
C           50.03       12.88       -0.23       
C           49.01       12.26       -0.85       
C           56.13       11.8        0.72        
C           55.5        10.85       -0.04       
S           54.95       12.89       1.36        
H           53.37       10.54       -0.65       
H           55.97       9.93        -0.48       
C           54.09       11.15       -0.09       
C           53.59       12.23       0.53        
C           59.88       12.78       1.87        
C           59.92       11.59       1.27        
S           58.29       13.42       1.76        
H           58.46       10.21       0.32        
H           60.76       11.02       1.1         
C           58.6        11.18       0.78        
C           57.55       12.03       1.03        
C           62.7        15.42       2.55        
C           63.07       14.36       3.27        
S           61.04       15.28       2.1         
H           62.33       12.26       3.56        
H           64.0        14.28       3.78        
C           62.18       13.23       3.16        
C           61.05       13.55       2.38        
C           65.31       19.09       4.12        
C           64.49       18.6        3.22        
N           65.33       18.21       5.17        
C           64.84       16.9        4.73        
C           63.86       18.92       1.96        
O           63.89       19.85       1.15        
O           65.06       15.9        5.47        
C           62.57       17.49       0.26        
C           65.32       18.37       6.6         
H           64.30446    18.41145    6.99378     
H           65.9        19.31       6.91        
H           65.85       17.46       6.99        
H           61.69       16.96       0.24        
H           63.24846    16.96385    -0.41154    
H           62.3        18.49       -0.09       
N           63.14       17.7        1.63        
C           64.17       17.25       3.51        
C           63.25       16.76       2.58        
C           66.98       22.65       4.58        
C           66.02       22.69       3.59        
S           67.21       21.0        5.0         
H           64.47       21.32       2.82        
H           65.66       23.62       3.19        
C           65.36       21.42       3.39        
C           65.81       20.43       4.18        
C           69.0        25.94       5.12        
C           68.8        25.43       6.37        
S           68.23       24.93       3.92        
H           67.65       23.78       7.25        
H           69.09       25.91       7.31        
C           68.0        24.27       6.38        
C           67.77       23.78       5.1         
C           70.0        29.77       4.58        
C           70.52       29.02       3.54        
S           69.23       28.66       5.67        
H           70.41       26.82       2.77        
H           71.14       29.45       2.69        
C           70.23       27.55       3.59        
C           69.51       27.21       4.73        
C           70.19       34.21       2.58        
C           69.99       33.38       3.64        
N           70.53       33.4        1.52        
C           70.58       31.99       1.93        
C           69.8        33.45       5.1         
O           69.74       34.35       5.91        
O           70.88       31.17       1.04        
C           69.34       31.78       6.93        
C           70.39       33.77       0.09        
H           69.58452    33.20755    -0.38218    
H           71.35       33.59       -0.35       
H           70.15       34.83       -0.07       
H           69.45       30.69       7.16        
H           68.33067    32.09497    7.19486     
H           70.1        32.32       7.48        
N           69.63       32.09       5.54        
C           70.18       31.95       3.32        
C           69.93       31.22       4.47        
C           69.94       38.08       2.68        
C           69.06       37.5        3.61        
S           70.68       36.84       1.76        
H           68.48       35.48       4.27        
H           68.47       38.04       4.3         
C           69.06       36.11       3.6         
C           69.87       35.58       2.62        
C           71.92       41.28       2.37        
C           70.63       41.71       2.65        
S           72.01       39.64       2.25        
H           68.7        40.6        3.03        
H           70.39       42.75       2.96        
C           69.72       40.58       2.7         
C           70.31       39.41       2.48        
C           74.93       43.7        3.13        
C           75.39       42.52       2.58        
S           73.17       43.59       3.3         
H           74.41       40.63       1.76        
H           76.39       42.35       2.43        
C           74.34       41.6        2.12        
C           73.1        42.11       2.43        
C           78.71       45.71       5.13        
C           77.45       45.84       4.57        
N           79.12       44.45       4.95        
C           78.15       43.7        4.19        
C           76.42       46.79       4.3         
O           76.38       48.0        4.42        
O           78.35       42.48       4.08        
C           74.52       46.74       2.66        
C           80.23       43.79       5.68        
H           80.97708    43.30369    5.05273     
H           79.86       43.01       6.36        
H           80.84       44.38       6.33        
H           73.49       46.54       2.93        
H           74.70057    46.50387    1.61132     
H           74.69       47.76       2.84        
N           75.43       46.1        3.54        
C           77.01       44.58       4.09        
C           75.74       44.75       3.67        
C           81.02       48.62       6.53        
C           79.7        48.91       6.75        
S           81.09       47.16       5.59        
H           77.74       47.84       6.3         
H           79.36       49.87       7.2         
C           78.82       47.87       6.32        
C           79.4        46.79       5.8         
C           84.48       50.43       6.37        
C           83.62       51.3        6.99        
S           83.66       49.01       5.85        
H           81.55       51.16       7.8         
H           83.89       52.33       7.29        
C           82.33       50.68       7.21        
C           82.17       49.46       6.67        
C           88.23       50.42       5.33        
C           88.06       51.23       6.41        
S           86.68       49.81       4.87        
H           86.49       51.94       7.7         
H           88.87       51.71       6.83        
C           86.69       51.43       6.79        
C           85.85       50.56       6.16        
C           92.91       49.1        5.3         
C           91.68       49.19       4.66        
N           92.77       49.67       6.55        
C           91.42       50.15       6.73        
C           91.08       48.88       3.37        
O           91.45       48.44       2.31        
O           91.09       50.69       7.78        
C           88.87       49.01       2.39        
C           93.58       49.48       7.72        
H           93.36246    48.50456    8.15509     
H           93.46       50.34       8.44        
H           94.62       49.68       7.48        
H           87.94       49.58       2.29        
H           88.62333    47.95076    2.31745     
H           89.52       49.16       1.61        
N           89.71       49.37       3.52        
C           90.72       49.87       5.46        
C           89.5        49.86       4.86        
C           96.55       48.12       4.05        
C           95.58       47.61       3.24        
S           95.78       48.83       5.39        
H           93.42       47.66       3.01        
H           95.81       47.1        2.36        
C           94.26       47.92       3.64        
C           94.12       48.53       4.84        
C           100.19      48.73       2.94        
C           100.22      48.62       4.3         
S           98.62       48.41       2.29        
H           98.63       48.32       5.94        
H           101.11      48.78       4.9         
C           98.92       48.42       4.87        
C           97.95       48.32       3.86        
C           103.49      49.72       1.33        
C           102.51      49.88       0.33        
S           102.83      48.98       2.7         
H           100.36      49.59       0.1         
H           102.69      50.27       -0.63       
C           101.24      49.47       0.71        
C           101.25      48.94       2.02        
C           107.06      51.58       -1.18       
C           106.68      50.85       -0.12       
N           105.95      52.29       -1.58       
C           104.82      51.97       -0.82       
C           107.19      49.94       0.87        
O           108.32      49.43       1.13        
O           103.76      52.58       -0.9        
C           106.12      48.41       2.55        
C           105.72      53.23       -2.75       
H           104.98654   52.81193    -3.43945    
H           106.59      53.61       -3.25       
H           105.29      54.11       -2.34       
H           105.1       47.97       2.64        
H           106.45824   48.72171    3.53819     
H           106.86      47.69       2.21        
N           106.05      49.55       1.62        
C           105.3       51.01       0.15        
C           104.89      50.18       1.15        
C           110.57      52.05       -2.97       
C           110.81      51.81       -1.68       
S           108.88      52.13       -3.2        
H           109.79      51.22       0.14        
H           111.77      51.53       -1.38       
C           109.62      51.55       -0.9        
C           108.44      51.7        -1.6        
C           112.36      51.87       -6.38       
C           113.27      51.5        -5.41       
S           110.85      52.41       -5.7        
H           113.21      51.12       -3.15       
H           114.21      51.04       -5.69       
C           112.71      51.48       -4.06       
C           111.47      52.04       -4.04       
C           113.53      51.42       -10.08      
C           112.25      51.83       -10.02      
S           114.02      51.16       -8.45       
H           110.66      52.52       -8.63       
H           111.62      51.82       -10.94      
C           111.67      52.11       -8.8        
C           112.57      51.86       -7.78       
C           114.68      50.52       -14.71      
C           115.05      50.7        -13.4       
N           113.31      50.57       -14.77      
C           112.8       50.77       -13.43      
C           116.19      50.77       -12.54      
O           117.41      50.67       -12.76      
O           111.6       50.81       -13.21      
C           116.66      51.56       -10.23      
C           112.43      51.01       -15.81      
H           112.07726   52.03223    -15.67322   
H           111.67      50.25       -15.97      
H           113.0       50.95       -16.7       
H           116.36      51.37       -9.22       
H           116.87385   52.62236    -10.34727   
H           117.55      50.92       -10.49      
N           115.7       51.03       -11.23      
C           113.94      50.84       -12.54      
C           114.32      51.06       -11.22      
C           116.73      49.38       -17.86      
C           117.55      50.1        -17.0       
S           115.12      49.54       -17.28      
H           117.48      51.16       -15.07      
H           118.63      50.21       -17.11      
C           116.95      50.62       -15.81      
C           115.62      50.42       -15.81      
C           117.43      48.48       -21.45      
C           118.61      48.43       -20.86      
S           116.11      48.8        -20.37      
H           119.3       48.91       -18.82      
H           119.51      48.08       -21.35      
C           118.47      48.77       -19.48      
C           117.17      48.75       -19.08      
C           117.39      47.85       -25.23      
C           116.1       48.07       -24.86      
S           118.42      47.72       -23.83      
H           114.96      48.46       -22.93      
H           115.33      48.08       -25.59      
C           115.91      48.36       -23.46      
C           117.16      48.34       -22.8       
C           117.04      46.73       -29.95      
C           117.76      47.17       -28.87      
N           115.73      46.82       -29.52      
C           115.66      46.8        -28.03      
C           119.12      47.52       -28.51      
O           120.24      47.64       -29.1       
O           114.67      46.65       -27.39      
C           120.15      48.62       -26.45      
C           114.54      46.88       -30.29      
H           113.85913   47.67318    -29.98115   
H           114.03      45.91       -30.21      
H           114.77      47.05       -31.31      
H           120.57      48.22       -25.59      
H           119.89406   49.67931    -26.42867   
H           120.98      48.49       -27.13      
N           119.06      47.76       -27.03      
C           117.0       47.18       -27.63      
C           117.78      47.48       -26.56      
C           117.89      45.95       -33.76      
C           118.87      46.71       -33.26      
S           116.72      45.55       -32.52      
H           119.41      47.7        -31.35      
H           119.67      47.05       -33.9       
C           118.68      47.06       -31.91      
C           117.51      46.6        -31.34      
C           116.96      44.57       -37.28      
C           118.26      44.65       -37.17      
S           116.25      45.07       -35.8       
H           119.81      45.23       -35.74      
H           118.95      44.45       -38.02      
C           118.75      45.14       -35.98      
C           117.77      45.38       -35.06      
C           114.27      42.98       -39.67      
C           115.1       43.72       -40.49      
S           114.75      43.16       -38.05      
H           117.08      44.73       -40.17      
H           115.07      43.65       -41.56      
C           116.21      44.28       -39.74      
C           116.13      44.12       -38.39      
C           110.35      42.51       -42.34      
C           111.09      42.03       -41.3       
N           111.04      43.47       -42.93      
C           112.4       43.46       -42.53      
C           111.11      41.11       -40.14      
O           110.27      40.33       -39.73      
O           113.27      44.16       -43.11      
C           112.84      40.51       -38.4       
C           110.53      44.69       -43.39      
H           109.83919   45.09472    -42.65035   
H           111.41      45.37       -43.55      
H           110.0       44.66       -44.36      
H           113.18      41.11       -37.53      
H           113.50597   39.70934    -38.72176   
H           111.9       40.02       -38.02      
N           112.38      41.37       -39.47      
C           112.35      42.7        -41.32      
C           113.07      42.4        -40.12      
C           106.51      41.63       -42.56      
C           106.89      42.1        -43.79      
S           107.82      41.56       -41.46      
H           108.85      42.77       -44.76      
H           106.16      42.25       -44.6       
C           108.31      42.34       -43.9       
C           109.0       42.08       -42.66      
C           102.72      40.58       -41.99      
C           103.47      39.93       -40.98      
S           103.72      41.55       -42.96      
H           105.58      39.96       -40.27      
H           102.92      39.34       -40.26      
C           104.91      40.31       -41.06      
C           105.19      41.12       -42.12      
C           99.11       41.05       -43.24      
C           99.16       40.42       -42.02      
S           100.73      41.42       -43.68      
H           100.59      39.76       -40.53      
H           98.2        40.18       -41.58      
C           100.43      40.25       -41.44      
C           101.4       40.7        -42.25      
C           94.34       40.91       -44.2       
C           95.59       41.43       -44.5       
N           94.58       39.73       -43.51      
C           95.94       39.72       -42.93      
C           96.3        42.42       -45.28      
O           95.92       43.3        -46.09      
O           96.32       38.83       -42.22      
C           98.57       43.5        -45.26      
C           93.54       38.69       -43.33      
H           93.59691    38.23475    -42.34126   
H           93.54       37.86       -44.06      
H           92.49       39.07       -43.38      
H           99.57       43.09       -45.39      
H           98.6412     44.28321    -44.50527   
H           98.18       43.89       -46.24      
N           97.68       42.39       -44.86      
C           96.63       40.74       -43.7       
C           97.87       41.29       -44.04      
C           90.75       41.86       -45.48      
C           91.68       42.36       -46.33      
S           91.52       41.1        -44.14      
H           93.8        42.43       -46.56      
H           91.44       42.8        -47.24      
C           92.99       42.11       -45.89      
C           93.14       41.32       -44.8       
C           86.9        42.02       -46.46      
C           87.02       41.34       -45.27      
S           88.43       42.74       -46.87      
H           88.67       40.64       -43.94      
H           86.15       40.85       -44.8       
C           88.39       41.23       -44.81      
C           89.29       41.85       -45.6       
C           83.42       42.47       -48.18      
C           84.46       42.73       -49.08      
S           84.15       42.1        -46.61      
H           86.6        42.68       -49.2       
H           84.24       43.16       -50.07      
C           85.72       42.59       -48.57      
C           85.75       42.27       -47.25      
H           47.95       12.61       -0.97       
H           82.36       42.6        -48.29      
